AeroDyn airfoil file.  Compatible with AeroDyn v13.0.
Round root section with a Cd of 0.35
Made by Jason Jonkman
1        Number of airfoil tables in this file
9.99e9   Reynolds number in millions.  For efficiency, make very large if only one table.
0.0      Control Setting
0.0      Stall angle (deg)
0.0      Zero Cn angle of attack (deg)
0.0      Cn slope for zero lift (dimensionless)
0.0      Cn extrapolated to value at positive stall angle of attack
0.0      Cn at stall value for negative angle of attack
0.0      Angle of attack for minimum CD (deg)
0.35     Minimum CD value
-180.00    0.000   0.3500   0.000
0.00    0.000   0.3500   0.000
180.00    0.000   0.3500   0.000
EOT