AeroDyn airfoil file.  Compatible with AeroDyn v13.0.
This file was generated automatically by HARP_Opt.
This data represents a 22.5 percent thick airfoil, and was interpolated between the airfoil data in the files NREL5MW_0250.dat and NREL5MW_0210.dat.
  1           Number of airfoil tables in this file
 1.000         Table ID parameter (Reynolds number in millions)
 8.188         Stall angle (deg)
  0           Zero lift angle of attack (deg)
  0           Cn slope for zero lift (dimensionless)
  0           Cn at stall value for positive angle of attack
  0           Cn at stall value for negative angle of attack
  0           Angle of attack for minimum CD (deg)
  0           Minimum CD value
-180.000    0.0000    0.0191    0.0000
-175.000    0.3843    0.0329    0.1928
-170.000    0.7681    0.0944    0.3865
-160.000    0.6794    0.2824    0.2716
-155.000    0.7595    0.3958    0.3091
-150.000    0.8086    0.5151    0.3381
-145.000    0.8300    0.6361    0.3600
-140.000    0.8254    0.7551    0.3759
-135.000    0.7980    0.8691    0.3867
-130.000    0.7510    0.9757    0.3933
-125.000    0.6863    1.0730    0.3962
-120.000    0.6065    1.1593    0.3961
-115.000    0.5144    1.2333    0.3934
-110.000    0.4116    1.2941    0.3885
-105.000    0.3015    1.3409    0.3817
-100.000    0.1850    1.3733    0.3733
-95.000    0.0649    1.3908    0.3636
-90.000    -0.0563    1.3934    0.3525
-85.000    -0.1767    1.3810    0.3404
-80.000    -0.2946    1.3539    0.3272
-75.000    -0.4077    1.3124    0.3131
-70.000    -0.5142    1.2568    0.2980
-65.000    -0.6114    1.1880    0.2821
-60.000    -0.6979    1.1067    0.2653
-55.000    -0.7700    1.0143    0.2477
-50.000    -0.8271    0.9122    0.2292
-45.000    -0.8653    0.8020    0.2098
-40.000    -0.8836    0.6862    0.1896
-35.000    -0.8780    0.5673    0.1685
-30.000    -0.8470    0.4484    0.1465
-25.000    -0.7955    0.3325    0.1222
-24.000    -0.7933    0.3086    0.1144
-23.000    -0.7990    0.2841    0.1049
-22.000    -0.8101    0.2590    0.0937
-21.000    -0.8273    0.2336    0.0811
-20.000    -0.8487    0.2078    0.0672
-19.000    -0.8742    0.1821    0.0522
-18.000    -0.9021    0.1564    0.0362
-17.000    -0.9321    0.1310    0.0195
-16.000    -0.9638    0.1059    0.0023
-15.000    -0.9951    0.0813    -0.0153
-14.000    -1.0037    0.0613    -0.0267
-13.000    -0.9891    0.0456    -0.0316
-12.010    -0.9530    0.0271    -0.0349
-11.000    -0.9000    0.0303    -0.0361
-9.980    -0.8270    0.0287    -0.0464
-8.980    -0.7015    0.0226    -0.0610
-8.470    -0.6283    0.0196    -0.0715
-7.450    -0.4846    0.0107    -0.0890
-6.420    -0.3427    0.0090    -0.1019
-5.400    -0.2048    0.0078    -0.1097
-5.000    -0.1531    0.0071    -0.1148
-4.500    -0.0870    0.0067    -0.1172
-4.000    -0.0215    0.0066    -0.1194
-3.500    0.0433    0.0064    -0.1215
-3.000    0.1090    0.0062    -0.1236
-2.500    0.1731    0.0061    -0.1254
-2.000    0.2366    0.0061    -0.1271
-1.500    0.3008    0.0061    -0.1288
-1.000    0.3645    0.0061    -0.1304
-0.500    0.4276    0.0061    -0.1319
0.000    0.4921    0.0060    -0.1334
0.262    0.5251    0.0060    -0.1342
0.525    0.5580    0.0060    -0.1350
0.786    0.5910    0.0061    -0.1357
1.047    0.6238    0.0061    -0.1365
1.307    0.6559    0.0061    -0.1371
1.565    0.6880    0.0061    -0.1378
1.822    0.7204    0.0062    -0.1385
2.077    0.7524    0.0063    -0.1391
2.330    0.7835    0.0063    -0.1397
2.580    0.8140    0.0064    -0.1403
2.828    0.8441    0.0065    -0.1407
3.072    0.8740    0.0066    -0.1412
3.314    0.9036    0.0067    -0.1415
3.552    0.9326    0.0068    -0.1418
3.787    0.9580    0.0070    -0.1417
4.018    0.9824    0.0072    -0.1417
4.244    1.0068    0.0074    -0.1416
4.467    1.0297    0.0077    -0.1415
4.684    1.0512    0.0080    -0.1410
4.897    1.0721    0.0084    -0.1406
5.105    1.0926    0.0088    -0.1400
5.307    1.1128    0.0093    -0.1395
5.504    1.1325    0.0098    -0.1390
5.696    1.1513    0.0102    -0.1385
5.881    1.1689    0.0106    -0.1381
6.061    1.1858    0.0111    -0.1376
6.234    1.2021    0.0115    -0.1371
6.401    1.2177    0.0119    -0.1365
6.562    1.2327    0.0123    -0.1360
6.715    1.2468    0.0126    -0.1353
6.862    1.2600    0.0129    -0.1347
7.001    1.2727    0.0132    -0.1341
7.134    1.2846    0.0134    -0.1335
7.259    1.2953    0.0137    -0.1329
7.377    1.3044    0.0139    -0.1323
7.487    1.3129    0.0141    -0.1318
7.589    1.3209    0.0142    -0.1310
7.684    1.3282    0.0144    -0.1302
7.770    1.3340    0.0146    -0.1295
7.849    1.3393    0.0147    -0.1288
7.920    1.3441    0.0149    -0.1282
7.982    1.3483    0.0150    -0.1277
8.037    1.3520    0.0151    -0.1273
8.083    1.3551    0.0152    -0.1269
8.120    1.3576    0.0152    -0.1266
8.150    1.3596    0.0153    -0.1264
8.171    1.3610    0.0153    -0.1262
8.183    1.3618    0.0154    -0.1261
8.188    1.3621    0.0154    -0.1261
8.206    1.3632    0.0154    -0.1260
8.263    1.3664    0.0156    -0.1255
8.358    1.3718    0.0158    -0.1248
8.490    1.3794    0.0161    -0.1237
8.659    1.3890    0.0166    -0.1224
8.866    1.3984    0.0176    -0.1209
9.110    1.4090    0.0188    -0.1190
9.391    1.4140    0.0207    -0.1169
9.709    1.4148    0.0232    -0.1145
10.063    1.3918    0.0271    -0.1117
10.453    1.3587    0.0316    -0.1088
10.878    1.3221    0.0369    -0.1059
11.338    1.2916    0.0429    -0.1030
11.833    1.2723    0.0498    -0.1001
12.362    1.2636    0.0581    -0.0971
12.925    1.2629    0.0679    -0.0940
13.520    1.2647    0.0793    -0.0915
14.148    1.2670    0.0911    -0.0902
14.807    1.2726    0.1041    -0.0899
15.498    1.2812    0.1172    -0.0901
16.219    1.2891    0.1316    -0.0913
16.969    1.3041    0.1469    -0.0933
17.749    1.3101    0.1620    -0.0960
18.556    1.3139    0.1786    -0.0996
19.390    1.3207    0.1965    -0.1047
20.251    1.3318    0.2153    -0.1114
21.137    1.3321    0.2374    -0.1189
22.048    1.2933    0.2631    -0.1251
22.982    1.2523    0.2899    -0.1315
23.939    1.2109    0.3176    -0.1380
24.917    1.1694    0.3463    -0.1445
25.917    1.1296    0.3756    -0.1509
26.935    1.0933    0.4054    -0.1574
27.973    1.0569    0.4358    -0.1639
29.028    1.0296    0.4661    -0.1701
30.099    1.0037    0.4967    -0.1764
31.185    0.9911    0.5268    -0.1823
32.286    0.9827    0.5569    -0.1882
33.400    0.9864    0.5863    -0.1937
34.526    0.9901    0.6160    -0.1993
35.662    0.9918    0.6458    -0.2048
36.808    0.9921    0.6756    -0.2102
37.963    0.9923    0.7056    -0.2157
39.125    0.9926    0.7358    -0.2212
40.293    0.9913    0.7659    -0.2266
41.465    0.9856    0.7952    -0.2319
42.641    0.9798    0.8246    -0.2372
43.820    0.9739    0.8541    -0.2425
45.000    0.9681    0.8836    -0.2478
50.000    0.9200    1.0005    -0.2690
55.000    0.8521    1.1067    -0.2891
60.000    0.7663    1.1997    -0.3081
65.000    0.6670    1.2781    -0.3260
70.000    0.5557    1.3406    -0.3430
75.000    0.4366    1.3863    -0.3588
80.000    0.3123    1.4150    -0.3736
85.000    0.1858    1.4280    -0.3873
90.000    0.0601    1.4314    -0.3999
95.000    -0.0644    1.4290    -0.4111
100.000    -0.1875    1.4112    -0.4210
105.000    -0.3070    1.3783    -0.4293
110.000    -0.4209    1.3305    -0.4359
115.000    -0.5264    1.2684    -0.4404
120.000    -0.6216    1.1927    -0.4425
125.000    -0.7039    1.1043    -0.4417
130.000    -0.7705    1.0046    -0.4377
135.000    -0.8195    0.8952    -0.4296
140.000    -0.8479    0.7782    -0.4169
145.000    -0.8529    0.6559    -0.3987
150.000    -0.8316    0.5315    -0.3740
155.000    -0.7811    0.4087    -0.3414
160.000    -0.6990    0.2918    -0.2996
170.000    -0.7681    0.0979    -0.3869
175.000    -0.3843    0.0342    -0.1928
180.000    0.0000    0.0191    0.0000
EOT 1
