AeroDyn airfoil file.  Compatible with AeroDyn v13.0.
This file was generated automatically by HARP_Opt.
This data represents a 42.1 percent thick airfoil, and was interpolated between the airfoil data in the files NREL5MW_1000.dat and NREL5MW_0400.dat.
  1           Number of airfoil tables in this file
 1.000         Table ID parameter (Reynolds number in millions)
 8.685         Stall angle (deg)
  0           Zero lift angle of attack (deg)
  0           Cn slope for zero lift (dimensionless)
  0           Cn at stall value for positive angle of attack
  0           Cn at stall value for negative angle of attack
  0           Angle of attack for minimum CD (deg)
  0           Minimum CD value
-180.000    0.0000    0.0756    0.0000
-175.000    0.2104    0.0850    0.0901
-170.000    0.3831    0.1243    0.1638
-160.000    0.6195    0.3113    0.2715
-155.000    0.6900    0.4208    0.3096
-150.000    0.7305    0.5343    0.3393
-145.000    0.7450    0.6481    0.3621
-140.000    0.7353    0.7591    0.3789
-135.000    0.7054    0.8645    0.3906
-130.000    0.6562    0.9620    0.3982
-125.000    0.5915    1.0501    0.4020
-120.000    0.5134    1.1272    0.4030
-115.000    0.4236    1.1923    0.4012
-110.000    0.3252    1.2446    0.3973
-105.000    0.2200    1.2834    0.3915
-100.000    0.1100    1.3085    0.3840
-95.000    -0.0019    1.3195    0.3751
-90.000    -0.1158    1.3164    0.3649
-85.000    -0.2277    1.2993    0.3535
-80.000    -0.3368    1.2685    0.3410
-75.000    -0.4400    1.2244    0.3275
-70.000    -0.5375    1.1676    0.3130
-65.000    -0.6244    1.0987    0.2976
-60.000    -0.7016    1.0188    0.2812
-55.000    -0.7643    0.9290    0.2637
-50.000    -0.8125    0.8309    0.2454
-45.000    -0.8434    0.7263    0.2260
-40.000    -0.8550    0.6172    0.2054
-35.000    -0.8444    0.5065    0.1839
-30.000    -0.8096    0.3969    0.1612
-25.000    -0.7498    0.2924    0.1372
-24.000    -0.7344    0.2725    0.1323
-23.000    -0.7180    0.2530    0.1274
-22.000    -0.6996    0.2339    0.1224
-21.000    -0.6813    0.2152    0.1172
-20.000    -0.6610    0.1971    0.1121
-19.000    -0.6388    0.1803    0.1059
-18.000    -0.6128    0.1654    0.0977
-17.000    -0.5838    0.1524    0.0875
-16.000    -0.5510    0.1411    0.0757
-15.000    -0.5153    0.1317    0.0623
-14.000    -0.4767    0.1237    0.0477
-13.000    -0.4362    0.1175    0.0318
-12.000    -0.3928    0.1126    0.0151
-11.000    -0.3474    0.1093    -0.0025
-10.000    -0.3001    0.1073    -0.0206
-8.000    -0.2007    0.1072    -0.0579
-6.000    -0.1071    0.0840    -0.0483
-5.500    -0.0868    0.0768    -0.0498
-5.000    -0.0695    0.0703    -0.0513
-4.500    -0.0627    0.0638    -0.0519
-4.000    -0.0521    0.0572    -0.0525
-3.500    -0.0164    0.0512    -0.0535
-3.000    0.0029    0.0464    -0.0538
-2.500    0.0135    0.0421    -0.0536
-2.000    0.0087    0.0366    -0.0515
-1.500    0.0039    0.0333    -0.0427
-1.000    0.0347    0.0317    -0.0453
-0.500    0.0704    0.0307    -0.0504
0.000    0.1322    0.0284    -0.0553
0.500    0.2055    0.0285    -0.0621
1.000    0.2818    0.0289    -0.0693
1.500    0.3561    0.0293    -0.0756
2.000    0.4285    0.0295    -0.0806
2.500    0.4960    0.0295    -0.0836
3.000    0.5597    0.0294    -0.0856
3.500    0.6224    0.0291    -0.0868
4.000    0.6851    0.0290    -0.0882
4.500    0.7488    0.0293    -0.0900
5.000    0.8116    0.0296    -0.0914
5.500    0.8724    0.0299    -0.0924
6.000    0.9332    0.0305    -0.0933
6.500    0.9911    0.0314    -0.0939
7.000    1.0461    0.0327    -0.0938
7.500    1.1001    0.0343    -0.0938
8.000    1.1512    0.0366    -0.0934
8.500    1.1985    0.0398    -0.0924
9.000    1.2420    0.0440    -0.0915
9.500    1.2863    0.0487    -0.0909
10.000    1.3201    0.0554    -0.0894
10.500    1.3510    0.0633    -0.0876
11.000    1.3751    0.0735    -0.0859
11.500    1.3983    0.0842    -0.0846
12.000    1.4214    0.0962    -0.0840
12.500    1.4417    0.1114    -0.0840
13.000    1.4600    0.1264    -0.0845
13.500    1.4842    0.1418    -0.0855
14.500    1.5315    0.1767    -0.0885
15.000    1.5575    0.1955    -0.0906
15.500    1.5739    0.2155    -0.0932
16.000    1.5913    0.2346    -0.0961
16.500    1.6077    0.2556    -0.0995
17.000    1.6222    0.2765    -0.1032
17.500    1.6395    0.2974    -0.1071
18.000    1.6588    0.3187    -0.1117
19.000    1.6897    0.3605    -0.1199
19.500    1.7052    0.3826    -0.1246
20.500    1.7351    0.4240    -0.1336
21.000    1.7467    0.4435    -0.1366
22.000    1.7659    0.4836    -0.1427
23.000    1.7824    0.5248    -0.1488
24.000    1.7959    0.5670    -0.1547
25.000    1.8065    0.6101    -0.1606
26.000    1.8152    0.6537    -0.1664
28.000    1.8277    0.7425    -0.1777
30.000    1.8374    0.8321    -0.1886
32.000    1.8480    0.9211    -0.1991
35.000    1.8615    1.0522    -0.2142
40.000    1.8364    1.2597    -0.2382
45.000    1.7563    1.4453    -0.2606
50.000    1.6308    1.6002    -0.2819
55.000    1.4687    1.7168    -0.3018
60.000    1.2767    1.7892    -0.3205
65.000    1.0673    1.8138    -0.3379
70.000    0.8492    1.7880    -0.3543
75.000    0.6350    1.7127    -0.3696
80.000    0.4333    1.5937    -0.3838
85.000    0.2577    1.4502    -0.3968
90.000    0.1197    1.3568    -0.4086
95.000    0.0019    1.3600    -0.4191
100.000    -0.1139    1.3487    -0.4282
105.000    -0.2268    1.3230    -0.4356
110.000    -0.3358    1.2830    -0.4413
115.000    -0.4371    1.2293    -0.4449
120.000    -0.5298    1.1624    -0.4461
125.000    -0.6108    1.0830    -0.4445
130.000    -0.6774    0.9923    -0.4395
135.000    -0.7276    0.8918    -0.4306
140.000    -0.7595    0.7832    -0.4172
145.000    -0.7691    0.6689    -0.3983
150.000    -0.7546    0.5513    -0.3728
155.000    -0.7131    0.4342    -0.3398
160.000    -0.6408    0.3212    -0.2977
170.000    -0.3956    0.1279    -0.1793
175.000    -0.2181    0.0852    -0.0986
180.000    0.0000    0.0756    0.0000
EOT 1
