AeroDyn airfoil file.  Compatible with AeroDyn v13.0.
This file was generated automatically by HARP_Opt.
This data represents a 45.9 percent thick airfoil, and was interpolated between the airfoil data in the files NREL5MW_1000.dat and NREL5MW_0400.dat.
  1           Number of airfoil tables in this file
 1.000         Table ID parameter (Reynolds number in millions)
 8.115         Stall angle (deg)
  0           Zero lift angle of attack (deg)
  0           Cn slope for zero lift (dimensionless)
  0           Cn at stall value for positive angle of attack
  0           Cn at stall value for negative angle of attack
  0           Angle of attack for minimum CD (deg)
  0           Minimum CD value
-180.000    0.0000    0.1034    0.0000
-175.000    0.1966    0.1122    0.0842
-170.000    0.3580    0.1490    0.1530
-160.000    0.5789    0.3237    0.2536
-155.000    0.6447    0.4260    0.2893
-150.000    0.6826    0.5320    0.3170
-145.000    0.6961    0.6384    0.3383
-140.000    0.6871    0.7421    0.3540
-135.000    0.6591    0.8406    0.3650
-130.000    0.6131    0.9317    0.3720
-125.000    0.5527    1.0139    0.3756
-120.000    0.4797    1.0860    0.3765
-115.000    0.3958    1.1469    0.3749
-110.000    0.3039    1.1957    0.3712
-105.000    0.2056    1.2320    0.3658
-100.000    0.1028    1.2554    0.3588
-95.000    -0.0018    1.2657    0.3505
-90.000    -0.1082    1.2628    0.3409
-85.000    -0.2128    1.2469    0.3303
-80.000    -0.3147    1.2181    0.3186
-75.000    -0.4112    1.1769    0.3060
-70.000    -0.5022    1.1238    0.2925
-65.000    -0.5834    1.0594    0.2781
-60.000    -0.6555    0.9847    0.2627
-55.000    -0.7141    0.9009    0.2464
-50.000    -0.7592    0.8092    0.2293
-45.000    -0.7881    0.7114    0.2112
-40.000    -0.7989    0.6096    0.1920
-35.000    -0.7890    0.5060    0.1719
-30.000    -0.7565    0.4037    0.1506
-25.000    -0.7006    0.3061    0.1282
-24.000    -0.6862    0.2874    0.1236
-23.000    -0.6708    0.2692    0.1190
-22.000    -0.6537    0.2513    0.1143
-21.000    -0.6366    0.2339    0.1096
-20.000    -0.6176    0.2170    0.1048
-19.000    -0.5969    0.2013    0.0989
-18.000    -0.5726    0.1874    0.0912
-17.000    -0.5455    0.1752    0.0818
-16.000    -0.5149    0.1647    0.0707
-15.000    -0.4815    0.1558    0.0582
-14.000    -0.4454    0.1484    0.0445
-13.000    -0.4076    0.1426    0.0298
-12.000    -0.3670    0.1381    0.0141
-11.000    -0.3246    0.1349    -0.0023
-10.000    -0.2804    0.1331    -0.0192
-8.000    -0.1875    0.1330    -0.0541
-6.000    -0.1001    0.1113    -0.0451
-5.500    -0.0811    0.1045    -0.0465
-5.000    -0.0649    0.0985    -0.0480
-4.500    -0.0586    0.0924    -0.0485
-4.000    -0.0487    0.0862    -0.0491
-3.500    -0.0153    0.0806    -0.0500
-3.000    0.0027    0.0761    -0.0503
-2.500    0.0126    0.0722    -0.0500
-2.000    0.0081    0.0670    -0.0481
-1.500    0.0036    0.0640    -0.0399
-1.000    0.0325    0.0624    -0.0423
-0.500    0.0658    0.0615    -0.0471
0.000    0.1235    0.0594    -0.0517
0.500    0.1921    0.0594    -0.0581
1.000    0.2633    0.0598    -0.0647
1.500    0.3327    0.0602    -0.0706
2.000    0.4003    0.0603    -0.0753
2.500    0.4635    0.0603    -0.0781
3.000    0.5230    0.0603    -0.0800
3.500    0.5816    0.0600    -0.0811
4.000    0.6402    0.0599    -0.0824
4.500    0.6997    0.0602    -0.0841
5.000    0.7583    0.0604    -0.0854
5.500    0.8151    0.0608    -0.0863
6.000    0.8719    0.0613    -0.0872
6.500    0.9260    0.0622    -0.0877
7.000    0.9774    0.0634    -0.0876
7.500    1.0279    0.0649    -0.0876
8.000    1.0757    0.0670    -0.0873
8.500    1.1199    0.0700    -0.0864
9.000    1.1604    0.0740    -0.0855
9.500    1.2019    0.0783    -0.0849
10.000    1.2335    0.0846    -0.0835
10.500    1.2623    0.0920    -0.0819
11.000    1.2849    0.1015    -0.0802
11.500    1.3065    0.1115    -0.0791
12.000    1.3282    0.1227    -0.0784
12.500    1.3471    0.1369    -0.0784
13.000    1.3642    0.1510    -0.0790
13.500    1.3868    0.1653    -0.0799
14.500    1.4309    0.1979    -0.0827
15.000    1.4553    0.2155    -0.0847
15.500    1.4706    0.2342    -0.0871
16.000    1.4868    0.2520    -0.0898
16.500    1.5022    0.2716    -0.0930
17.000    1.5157    0.2912    -0.0964
17.500    1.5319    0.3106    -0.1001
18.000    1.5500    0.3306    -0.1043
19.000    1.5788    0.3696    -0.1120
19.500    1.5932    0.3903    -0.1164
20.500    1.6212    0.4289    -0.1248
21.000    1.6320    0.4473    -0.1277
22.000    1.6501    0.4847    -0.1334
23.000    1.6654    0.5232    -0.1390
24.000    1.6780    0.5626    -0.1445
25.000    1.6879    0.6029    -0.1500
26.000    1.6960    0.6436    -0.1554
28.000    1.7078    0.7266    -0.1660
30.000    1.7168    0.8103    -0.1762
32.000    1.7267    0.8935    -0.1860
35.000    1.7393    1.0159    -0.2002
40.000    1.7159    1.2099    -0.2225
45.000    1.6410    1.3833    -0.2435
50.000    1.5238    1.5280    -0.2634
55.000    1.3723    1.6369    -0.2820
60.000    1.1929    1.7046    -0.2994
65.000    0.9972    1.7275    -0.3158
70.000    0.7935    1.7035    -0.3311
75.000    0.5933    1.6331    -0.3453
80.000    0.4048    1.5219    -0.3586
85.000    0.2407    1.3879    -0.3708
90.000    0.1118    1.3006    -0.3818
95.000    0.0018    1.3036    -0.3916
100.000    -0.1064    1.2930    -0.4001
105.000    -0.2119    1.2689    -0.4070
110.000    -0.3138    1.2316    -0.4123
115.000    -0.4085    1.1814    -0.4157
120.000    -0.4950    1.1189    -0.4168
125.000    -0.5708    1.0447    -0.4153
130.000    -0.6330    0.9600    -0.4106
135.000    -0.6799    0.8661    -0.4023
140.000    -0.7096    0.7646    -0.3898
145.000    -0.7186    0.6578    -0.3721
150.000    -0.7051    0.5480    -0.3483
155.000    -0.6663    0.4385    -0.3175
160.000    -0.5987    0.3329    -0.2782
170.000    -0.3697    0.1523    -0.1675
175.000    -0.2038    0.1125    -0.0922
180.000    0.0000    0.1034    0.0000
EOT 1
