AeroDyn airfoil file.  Compatible with AeroDyn v13.0.
This file was generated automatically by HARP_Opt.
This data represents a 46.9 percent thick airfoil, and was interpolated between the airfoil data in the files NREL5MW_1000.dat and NREL5MW_0400.dat.
  1           Number of airfoil tables in this file
 1.000         Table ID parameter (Reynolds number in millions)
 7.965         Stall angle (deg)
  0           Zero lift angle of attack (deg)
  0           Cn slope for zero lift (dimensionless)
  0           Cn at stall value for positive angle of attack
  0           Cn at stall value for negative angle of attack
  0           Angle of attack for minimum CD (deg)
  0           Minimum CD value
-180.000    0.0000    0.1108    0.0000
-175.000    0.1929    0.1194    0.0827
-170.000    0.3513    0.1555    0.1502
-160.000    0.5682    0.3270    0.2490
-155.000    0.6328    0.4273    0.2839
-150.000    0.6699    0.5314    0.3112
-145.000    0.6832    0.6358    0.3321
-140.000    0.6744    0.7376    0.3475
-135.000    0.6469    0.8343    0.3582
-130.000    0.6018    0.9237    0.3652
-125.000    0.5425    1.0045    0.3687
-120.000    0.4708    1.0752    0.3696
-115.000    0.3885    1.1349    0.3680
-110.000    0.2982    1.1829    0.3644
-105.000    0.2018    1.2184    0.3590
-100.000    0.1009    1.2415    0.3521
-95.000    -0.0018    1.2515    0.3440
-90.000    -0.1062    1.2487    0.3346
-85.000    -0.2089    1.2330    0.3242
-80.000    -0.3089    1.2048    0.3128
-75.000    -0.4036    1.1644    0.3004
-70.000    -0.4929    1.1122    0.2871
-65.000    -0.5726    1.0491    0.2729
-60.000    -0.6434    0.9758    0.2579
-55.000    -0.7009    0.8935    0.2419
-50.000    -0.7452    0.8035    0.2251
-45.000    -0.7735    0.7075    0.2073
-40.000    -0.7841    0.6075    0.1884
-35.000    -0.7744    0.5059    0.1687
-30.000    -0.7425    0.4055    0.1478
-25.000    -0.6876    0.3096    0.1258
-24.000    -0.6735    0.2913    0.1213
-23.000    -0.6584    0.2734    0.1168
-22.000    -0.6416    0.2559    0.1122
-21.000    -0.6248    0.2388    0.1075
-20.000    -0.6062    0.2222    0.1028
-19.000    -0.5859    0.2068    0.0971
-18.000    -0.5620    0.1932    0.0896
-17.000    -0.5354    0.1812    0.0803
-16.000    -0.5053    0.1709    0.0694
-15.000    -0.4726    0.1622    0.0572
-14.000    -0.4372    0.1549    0.0437
-13.000    -0.4000    0.1492    0.0292
-12.000    -0.3602    0.1448    0.0138
-11.000    -0.3186    0.1417    -0.0023
-10.000    -0.2752    0.1399    -0.0189
-8.000    -0.1841    0.1398    -0.0531
-6.000    -0.0982    0.1185    -0.0442
-5.500    -0.0796    0.1118    -0.0457
-5.000    -0.0637    0.1059    -0.0471
-4.500    -0.0575    0.1000    -0.0476
-4.000    -0.0478    0.0939    -0.0481
-3.500    -0.0150    0.0884    -0.0490
-3.000    0.0027    0.0840    -0.0494
-2.500    0.0124    0.0801    -0.0491
-2.000    0.0080    0.0750    -0.0473
-1.500    0.0035    0.0720    -0.0391
-1.000    0.0319    0.0705    -0.0415
-0.500    0.0646    0.0696    -0.0462
0.000    0.1212    0.0675    -0.0507
0.500    0.1885    0.0676    -0.0570
1.000    0.2584    0.0679    -0.0635
1.500    0.3266    0.0683    -0.0693
2.000    0.3929    0.0685    -0.0739
2.500    0.4549    0.0685    -0.0766
3.000    0.5133    0.0684    -0.0785
3.500    0.5708    0.0681    -0.0796
4.000    0.6283    0.0680    -0.0809
4.500    0.6868    0.0683    -0.0826
5.000    0.7443    0.0686    -0.0838
5.500    0.8000    0.0689    -0.0847
6.000    0.8558    0.0694    -0.0856
6.500    0.9089    0.0702    -0.0861
7.000    0.9593    0.0715    -0.0860
7.500    1.0089    0.0729    -0.0860
8.000    1.0558    0.0750    -0.0857
8.500    1.0992    0.0779    -0.0848
9.000    1.1390    0.0818    -0.0839
9.500    1.1797    0.0861    -0.0834
10.000    1.2107    0.0923    -0.0820
10.500    1.2390    0.0995    -0.0804
11.000    1.2611    0.1088    -0.0788
11.500    1.2824    0.1187    -0.0776
12.000    1.3036    0.1297    -0.0770
12.500    1.3222    0.1436    -0.0770
13.000    1.3390    0.1574    -0.0775
13.500    1.3611    0.1715    -0.0784
14.500    1.4045    0.2035    -0.0812
15.000    1.4284    0.2208    -0.0831
15.500    1.4434    0.2391    -0.0855
16.000    1.4594    0.2566    -0.0881
16.500    1.4744    0.2758    -0.0912
17.000    1.4877    0.2950    -0.0946
17.500    1.5036    0.3141    -0.0982
18.000    1.5213    0.3337    -0.1024
19.000    1.5496    0.3720    -0.1099
19.500    1.5638    0.3923    -0.1143
20.500    1.5912    0.4303    -0.1225
21.000    1.6018    0.4482    -0.1253
22.000    1.6195    0.4850    -0.1309
23.000    1.6346    0.5227    -0.1365
24.000    1.6470    0.5614    -0.1419
25.000    1.6567    0.6010    -0.1473
26.000    1.6647    0.6410    -0.1526
28.000    1.6762    0.7224    -0.1629
30.000    1.6850    0.8045    -0.1729
32.000    1.6948    0.8862    -0.1826
35.000    1.7072    1.0064    -0.1965
40.000    1.6842    1.1968    -0.2184
45.000    1.6107    1.3669    -0.2390
50.000    1.4956    1.5090    -0.2585
55.000    1.3470    1.6159    -0.2767
60.000    1.1709    1.6824    -0.2939
65.000    0.9788    1.7048    -0.3099
70.000    0.7788    1.6812    -0.3250
75.000    0.5823    1.6122    -0.3390
80.000    0.3974    1.5031    -0.3520
85.000    0.2363    1.3715    -0.3639
90.000    0.1097    1.2858    -0.3747
95.000    0.0018    1.2887    -0.3844
100.000    -0.1044    1.2784    -0.3927
105.000    -0.2080    1.2547    -0.3995
110.000    -0.3080    1.2181    -0.4047
115.000    -0.4009    1.1688    -0.4080
120.000    -0.4859    1.1075    -0.4091
125.000    -0.5602    1.0346    -0.4076
130.000    -0.6213    0.9515    -0.4030
135.000    -0.6673    0.8593    -0.3949
140.000    -0.6965    0.7597    -0.3826
145.000    -0.7053    0.6549    -0.3652
150.000    -0.6921    0.5471    -0.3419
155.000    -0.6540    0.4396    -0.3116
160.000    -0.5876    0.3360    -0.2730
170.000    -0.3628    0.1587    -0.1644
175.000    -0.2000    0.1196    -0.0904
180.000    0.0000    0.1108    0.0000
EOT 1
