AeroDyn airfoil file.  Compatible with AeroDyn v13.0.
This file was generated automatically by HARP_Opt.
This data represents a 45 percent thick airfoil, and was interpolated between the airfoil data in the files NREL5MW_1000.dat and NREL5MW_0400.dat.
  1           Number of airfoil tables in this file
 1.000         Table ID parameter (Reynolds number in millions)
 8.250         Stall angle (deg)
  0           Zero lift angle of attack (deg)
  0           Cn slope for zero lift (dimensionless)
  0           Cn at stall value for positive angle of attack
  0           Cn at stall value for negative angle of attack
  0           Angle of attack for minimum CD (deg)
  0           Minimum CD value
-180.000    0.0000    0.0969    0.0000
-175.000    0.1998    0.1057    0.0856
-170.000    0.3639    0.1431    0.1556
-160.000    0.5885    0.3208    0.2579
-155.000    0.6554    0.4247    0.2941
-150.000    0.6939    0.5325    0.3223
-145.000    0.7077    0.6407    0.3439
-140.000    0.6985    0.7461    0.3599
-135.000    0.6701    0.8462    0.3711
-130.000    0.6233    0.9389    0.3782
-125.000    0.5619    1.0225    0.3819
-120.000    0.4877    1.0957    0.3828
-115.000    0.4024    1.1576    0.3811
-110.000    0.3089    1.2073    0.3774
-105.000    0.2090    1.2442    0.3719
-100.000    0.1045    1.2680    0.3647
-95.000    -0.0018    1.2784    0.3563
-90.000    -0.1100    1.2755    0.3466
-85.000    -0.2163    1.2593    0.3358
-80.000    -0.3199    1.2300    0.3239
-75.000    -0.4180    1.1881    0.3111
-70.000    -0.5106    1.1342    0.2974
-65.000    -0.5931    1.0687    0.2827
-60.000    -0.6664    0.9928    0.2671
-55.000    -0.7260    0.9076    0.2505
-50.000    -0.7718    0.8143    0.2331
-45.000    -0.8012    0.7150    0.2147
-40.000    -0.8122    0.6114    0.1952
-35.000    -0.8021    0.5061    0.1747
-30.000    -0.7691    0.4021    0.1531
-25.000    -0.7122    0.3028    0.1303
-24.000    -0.6976    0.2838    0.1257
-23.000    -0.6820    0.2653    0.1210
-22.000    -0.6646    0.2472    0.1162
-21.000    -0.6472    0.2295    0.1114
-20.000    -0.6279    0.2123    0.1065
-19.000    -0.6068    0.1963    0.1006
-18.000    -0.5821    0.1822    0.0928
-17.000    -0.5546    0.1698    0.0831
-16.000    -0.5234    0.1591    0.0719
-15.000    -0.4895    0.1501    0.0592
-14.000    -0.4528    0.1426    0.0453
-13.000    -0.4143    0.1366    0.0302
-12.000    -0.3731    0.1321    0.0143
-11.000    -0.3300    0.1288    -0.0024
-10.000    -0.2851    0.1270    -0.0195
-8.000    -0.1907    0.1269    -0.0550
-6.000    -0.1017    0.1048    -0.0458
-5.500    -0.0825    0.0980    -0.0473
-5.000    -0.0660    0.0918    -0.0488
-4.500    -0.0596    0.0857    -0.0493
-4.000    -0.0495    0.0793    -0.0499
-3.500    -0.0156    0.0737    -0.0508
-3.000    0.0027    0.0691    -0.0512
-2.500    0.0128    0.0650    -0.0509
-2.000    0.0082    0.0598    -0.0490
-1.500    0.0037    0.0567    -0.0405
-1.000    0.0330    0.0551    -0.0430
-0.500    0.0669    0.0542    -0.0479
0.000    0.1256    0.0520    -0.0525
0.500    0.1952    0.0521    -0.0590
1.000    0.2677    0.0525    -0.0658
1.500    0.3383    0.0529    -0.0718
2.000    0.4070    0.0530    -0.0765
2.500    0.4712    0.0530    -0.0794
3.000    0.5317    0.0529    -0.0813
3.500    0.5912    0.0527    -0.0825
4.000    0.6508    0.0526    -0.0838
4.500    0.7113    0.0529    -0.0855
5.000    0.7709    0.0531    -0.0868
5.500    0.8287    0.0535    -0.0877
6.000    0.8864    0.0540    -0.0886
6.500    0.9414    0.0549    -0.0892
7.000    0.9937    0.0562    -0.0891
7.500    1.0450    0.0576    -0.0891
8.000    1.0936    0.0598    -0.0887
8.500    1.1385    0.0628    -0.0878
9.000    1.1797    0.0669    -0.0869
9.500    1.2219    0.0713    -0.0863
10.000    1.2540    0.0777    -0.0849
10.500    1.2833    0.0852    -0.0832
11.000    1.3062    0.0948    -0.0816
11.500    1.3282    0.1050    -0.0804
12.000    1.3503    0.1165    -0.0797
12.500    1.3695    0.1309    -0.0797
13.000    1.3869    0.1452    -0.0803
13.500    1.4098    0.1597    -0.0812
14.500    1.4548    0.1929    -0.0841
15.000    1.4795    0.2108    -0.0861
15.500    1.4951    0.2298    -0.0886
16.000    1.5116    0.2479    -0.0913
16.500    1.5272    0.2678    -0.0945
17.000    1.5409    0.2877    -0.0980
17.500    1.5574    0.3075    -0.1017
18.000    1.5758    0.3278    -0.1061
19.000    1.6051    0.3675    -0.1139
19.500    1.6197    0.3884    -0.1183
20.500    1.6482    0.4278    -0.1269
21.000    1.6592    0.4464    -0.1298
22.000    1.6775    0.4844    -0.1356
23.000    1.6931    0.5236    -0.1414
24.000    1.7059    0.5636    -0.1469
25.000    1.7160    0.6046    -0.1525
26.000    1.7242    0.6460    -0.1580
28.000    1.7362    0.7304    -0.1688
30.000    1.7453    0.8154    -0.1791
32.000    1.7554    0.9000    -0.1891
35.000    1.7682    1.0245    -0.2035
40.000    1.7444    1.2217    -0.2262
45.000    1.6683    1.3980    -0.2476
50.000    1.5492    1.5451    -0.2678
55.000    1.3952    1.6558    -0.2866
60.000    1.2128    1.7247    -0.3044
65.000    1.0138    1.7479    -0.3210
70.000    0.8067    1.7235    -0.3366
75.000    0.6032    1.6520    -0.3511
80.000    0.4116    1.5390    -0.3646
85.000    0.2448    1.4026    -0.3769
90.000    0.1137    1.3139    -0.3881
95.000    0.0018    1.3169    -0.3981
100.000    -0.1082    1.3062    -0.4067
105.000    -0.2154    1.2817    -0.4138
110.000    -0.3190    1.2438    -0.4192
115.000    -0.4153    1.1927    -0.4226
120.000    -0.5032    1.1292    -0.4238
125.000    -0.5802    1.0538    -0.4222
130.000    -0.6435    0.9677    -0.4174
135.000    -0.6912    0.8722    -0.4090
140.000    -0.7214    0.7690    -0.3963
145.000    -0.7306    0.6604    -0.3783
150.000    -0.7168    0.5488    -0.3541
155.000    -0.6774    0.4375    -0.3228
160.000    -0.6087    0.3301    -0.2828
170.000    -0.3758    0.1465    -0.1703
175.000    -0.2072    0.1060    -0.0937
180.000    0.0000    0.0969    0.0000
EOT 1
