AeroDyn airfoil file.  Compatible with AeroDyn v13.0.
This file was generated automatically by HARP_Opt.
This data represents a 61.2 percent thick airfoil, and was interpolated between the airfoil data in the files NREL5MW_1000.dat and NREL5MW_0400.dat.
  1           Number of airfoil tables in this file
 1.000         Table ID parameter (Reynolds number in millions)
 5.820         Stall angle (deg)
  0           Zero lift angle of attack (deg)
  0           Cn slope for zero lift (dimensionless)
  0           Cn at stall value for positive angle of attack
  0           Cn at stall value for negative angle of attack
  0           Angle of attack for minimum CD (deg)
  0           Minimum CD value
-180.000    0.0000    0.2156    0.0000
-175.000    0.1410    0.2219    0.0604
-170.000    0.2567    0.2483    0.1097
-160.000    0.4152    0.3736    0.1819
-155.000    0.4624    0.4469    0.2075
-150.000    0.4895    0.5230    0.2274
-145.000    0.4992    0.5993    0.2426
-140.000    0.4928    0.6736    0.2539
-135.000    0.4727    0.7442    0.2618
-130.000    0.4397    0.8096    0.2668
-125.000    0.3964    0.8686    0.2694
-120.000    0.3440    0.9203    0.2700
-115.000    0.2839    0.9639    0.2689
-110.000    0.2179    0.9990    0.2662
-105.000    0.1474    1.0250    0.2624
-100.000    0.0737    1.0418    0.2573
-95.000    -0.0013    1.0491    0.2514
-90.000    -0.0776    1.0471    0.2445
-85.000    -0.1526    1.0356    0.2369
-80.000    -0.2257    1.0150    0.2285
-75.000    -0.2949    0.9855    0.2195
-70.000    -0.3602    0.9474    0.2098
-65.000    -0.4184    0.9012    0.1994
-60.000    -0.4701    0.8476    0.1884
-55.000    -0.5122    0.7875    0.1767
-50.000    -0.5445    0.7217    0.1644
-45.000    -0.5652    0.6516    0.1514
-40.000    -0.5729    0.5786    0.1377
-35.000    -0.5658    0.5043    0.1233
-30.000    -0.5426    0.4309    0.1080
-25.000    -0.5025    0.3609    0.0920
-24.000    -0.4921    0.3475    0.0887
-23.000    -0.4811    0.3345    0.0854
-22.000    -0.4688    0.3216    0.0820
-21.000    -0.4565    0.3092    0.0786
-20.000    -0.4430    0.2970    0.0751
-19.000    -0.4281    0.2858    0.0709
-18.000    -0.4106    0.2758    0.0654
-17.000    -0.3912    0.2671    0.0587
-16.000    -0.3692    0.2595    0.0507
-15.000    -0.3453    0.2532    0.0418
-14.000    -0.3195    0.2479    0.0319
-13.000    -0.2923    0.2437    0.0213
-12.000    -0.2632    0.2404    0.0101
-11.000    -0.2328    0.2382    -0.0017
-10.000    -0.2011    0.2369    -0.0138
-8.000    -0.1345    0.2368    -0.0388
-6.000    -0.0718    0.2212    -0.0323
-5.500    -0.0582    0.2164    -0.0334
-5.000    -0.0466    0.2120    -0.0344
-4.500    -0.0420    0.2077    -0.0348
-4.000    -0.0349    0.2032    -0.0352
-3.500    -0.0110    0.1992    -0.0358
-3.000    0.0019    0.1960    -0.0361
-2.500    0.0091    0.1932    -0.0359
-2.000    0.0058    0.1895    -0.0345
-1.500    0.0026    0.1873    -0.0286
-1.000    0.0233    0.1862    -0.0303
-0.500    0.0472    0.1855    -0.0338
0.000    0.0886    0.1840    -0.0371
0.500    0.1377    0.1840    -0.0416
1.000    0.1888    0.1843    -0.0464
1.500    0.2386    0.1846    -0.0506
2.000    0.2871    0.1847    -0.0540
2.500    0.3324    0.1847    -0.0560
3.000    0.3751    0.1846    -0.0574
3.500    0.4171    0.1844    -0.0582
4.000    0.4591    0.1844    -0.0591
4.500    0.5018    0.1846    -0.0603
5.000    0.5438    0.1848    -0.0612
5.500    0.5846    0.1850    -0.0619
6.000    0.6253    0.1854    -0.0625
6.500    0.6641    0.1860    -0.0629
7.000    0.7010    0.1869    -0.0629
7.500    0.7372    0.1879    -0.0629
8.000    0.7715    0.1895    -0.0626
8.500    0.8032    0.1916    -0.0620
9.000    0.8323    0.1945    -0.0613
9.500    0.8620    0.1976    -0.0609
10.000    0.8846    0.2021    -0.0599
10.500    0.9053    0.2074    -0.0587
11.000    0.9215    0.2142    -0.0576
11.500    0.9370    0.2214    -0.0567
12.000    0.9525    0.2294    -0.0563
12.500    0.9661    0.2396    -0.0563
13.000    0.9784    0.2497    -0.0566
13.500    0.9946    0.2600    -0.0573
14.500    1.0263    0.2834    -0.0593
15.000    1.0437    0.2960    -0.0607
15.500    1.0547    0.3094    -0.0625
16.000    1.0664    0.3222    -0.0644
16.500    1.0773    0.3362    -0.0667
17.000    1.0870    0.3502    -0.0691
17.500    1.0987    0.3642    -0.0718
18.000    1.1116    0.3785    -0.0748
19.000    1.1323    0.4065    -0.0803
19.500    1.1427    0.4213    -0.0835
20.500    1.1627    0.4490    -0.0895
21.000    1.1705    0.4622    -0.0916
22.000    1.1834    0.4890    -0.0956
23.000    1.1944    0.5166    -0.0997
24.000    1.2034    0.5449    -0.1037
25.000    1.2106    0.5738    -0.1076
26.000    1.2164    0.6030    -0.1115
28.000    1.2248    0.6625    -0.1191
30.000    1.2313    0.7225    -0.1264
32.000    1.2384    0.7822    -0.1334
35.000    1.2474    0.8700    -0.1436
40.000    1.2306    1.0091    -0.1596
45.000    1.1769    1.1335    -0.1747
50.000    1.0929    1.2373    -0.1889
55.000    0.9842    1.3154    -0.2022
60.000    0.8555    1.3639    -0.2148
65.000    0.7152    1.3804    -0.2265
70.000    0.5691    1.3631    -0.2375
75.000    0.4255    1.3127    -0.2477
80.000    0.2904    1.2329    -0.2572
85.000    0.1727    1.1368    -0.2659
90.000    0.0802    1.0742    -0.2738
95.000    0.0013    1.0763    -0.2808
100.000    -0.0763    1.0687    -0.2869
105.000    -0.1520    1.0515    -0.2919
110.000    -0.2250    1.0247    -0.2957
115.000    -0.2929    0.9887    -0.2981
120.000    -0.3550    0.9439    -0.2990
125.000    -0.4093    0.8907    -0.2979
130.000    -0.4540    0.8299    -0.2945
135.000    -0.4876    0.7625    -0.2885
140.000    -0.5089    0.6898    -0.2796
145.000    -0.5154    0.6132    -0.2669
150.000    -0.5057    0.5344    -0.2498
155.000    -0.4779    0.4559    -0.2277
160.000    -0.4294    0.3802    -0.1995
170.000    -0.2651    0.2506    -0.1202
175.000    -0.1461    0.2221    -0.0661
180.000    0.0000    0.2156    0.0000
EOT 1
