
This file was generated by AeroDyn (v13.00.01a-bjj, 16-Feb-2012) on 02-Jan-2014 at 12:13:56.

Inputs read in from the AeroDyn input file:
NREL 5.0 MW offshore baseline aerodynamic input properties; Compatible with AeroDyn v12.58.

SI	Units for input and output         
BEDDOES	Dynamic stall model                 [Beddoes]
NO_CM	Aerodynamic pitching moment model   [NO Pitching Moments calculated]
EQUIL	Inflow model                        [Equilibrium]
SWIRL	Induction factor model              [Normal and Radial flow induction factors calculated]
5.00000E-03	Convergence tolerance for induction factor
PRAND	Tip-loss model                      [Prandtl model]
PRAND	Hub-loss model                      [Prandtl model]
".\HH_Rated.wnd"	  Wind file name
90	Wind reference (hub) height, m
0	Tower shadow centerline velocity deficit
9999.9	Tower shadow half width, m
9999.9	Tower shadow reference point, m
1.225	Air density, kg/m^3
1.46400E-05	Kinematic air viscosity, m^2/sec
2.47900E-02	Time interval for aerodynamic calculations, sec
17	Number of airfoil files used. Files listed below:
".\fst_scratch\0.af"
".\fst_scratch\1.af"
".\fst_scratch\2.af"
".\fst_scratch\3.af"
".\fst_scratch\4.af"
".\fst_scratch\5.af"
".\fst_scratch\6.af"
".\fst_scratch\7.af"
".\fst_scratch\8.af"
".\fst_scratch\9.af"
".\fst_scratch\10.af"
".\fst_scratch\11.af"
".\fst_scratch\12.af"
".\fst_scratch\13.af"
".\fst_scratch\14.af"
".\fst_scratch\15.af"
".\fst_scratch\16.af"
17	Number of blade elements per blade

     Element     RELM       Twist       DR        Chord      NFoil     Print?    Tip-loss   Hub-loss 
       (-)        (m)       (deg)       (m)        (m)        (-)     (Yes/No)   constant   constant 
   ---------- ---------- ---------- ---------- ---------- ---------- ---------- ---------- ----------
            1    2.86670   12.98988    2.73340    3.64183          1         No   31.46474    1.36670
            2    5.60000   12.36397    2.73320    3.90354          2         No   15.37500    4.10000
            3    8.33330   11.73180    2.73340    4.12932          3         No    9.84005    6.83330
            4   11.75000   10.93516    4.10000    4.34875          4         No    6.54255   10.25000
            5   15.85000    9.97385    4.10000    4.49923          5         No    4.46215   14.35000
            6   19.95000    9.01171    4.10000    4.50101          6         No    3.23684   18.45000
            7   24.05000    8.02827    4.10000    4.39300          7         No    2.42931   22.55000
            8   28.15000    7.01279    4.10000    4.23528          8         No    1.85702   26.65000
            9   32.25000    5.98734    4.10000    4.02785          9         No    1.43023   30.75000
           10   36.35000    4.97401    4.10000    3.77073         10         No    1.09973   34.85000
           11   40.45000    3.99530    4.10000    3.46417         11         No    0.83622   38.95000
           12   44.55000    3.10617    4.10000    3.13384         12         No    0.62121   43.05000
           13   48.65000    2.32011    4.10000    2.79165         13         No    0.44245   47.15000
           14   52.75000    1.61769    4.10000    2.43064         14         No    0.29147   51.25000
           15   56.16670    1.08220    2.73340    2.11038         15         No    0.18249   54.66670
           16   58.90000    0.67836    2.73320    1.83857         16         No    0.10441   57.40000
           17   61.63330    0.29010    2.73340    1.55065         17         No    0.03326   60.13330


 Rotor radius     =  62.940 m
 Hub radius       =   1.499 m
 Number of blades =   3

  BEDDOES DYNAMIC STALL PARAMETERS:

   CN SLOPE           0.0000     0.0000     0.0000     7.4888     7.1838     7.1838     7.3326     6.4462     6.4462     6.2047     6.2047     6.0031     6.0031     6.0031     6.0031     6.0031     6.0031
   STALL CN (UPPER)   0.0000     0.0000     0.0000     1.3519     1.6717     1.6717     1.4490     1.4336     1.4336     1.4144     1.4144     1.4073     1.4073     1.4073     1.4073     1.4073     1.4073
   STALL CN (LOWER)   0.0000     0.0000     0.0000    -0.3226    -0.3075    -0.3075    -0.6138    -0.6873    -0.6873    -0.5324    -0.5324    -0.7945    -0.7945    -0.7945    -0.7945    -0.7945    -0.7945
   ZERO LIFT AOA      0.0000     0.0000     0.0000    -1.3430    -1.8330    -1.8330    -2.3220    -4.2422    -4.2422    -5.0609    -5.0609    -4.4320    -4.4320    -4.4320    -4.4320    -4.4320    -4.4320
   MIN DRAG AOA       0.0000     0.0000     0.0000     0.0000     0.0000     0.0000     0.0000     0.0000     0.0000    -1.5000    -1.5000    -1.0000    -1.0000    -1.0000    -1.0000    -1.0000    -1.0000
   MIN DRAG COEFF     0.5000     0.5000     0.3500     0.0113     0.0094     0.0094     0.0087     0.0065     0.0065     0.0057     0.0057     0.0052     0.0052     0.0052     0.0052     0.0052     0.0052


     VORTEX TRANSIT TIME FROM LE TO TE    11.00000    
     PRESSURE TIME CONSTANT               1.700000    
     VORTEX TIME CONSTANT                 6.000000    
     F-PARAMETER TIME CONSTANT            3.000000    
