
These predictions were generated by FAST (v7.01.00a-bjj, 16-Feb-2012) on 02-Jan-2014 at 12:13:56.
The aerodynamic calculations were made by AeroDyn (v13.00.01a-bjj, 16-Feb-2012).

 NREL 5.0 MW Baseline Wind Turbine for Use in Offshore Analysis.  Sea-based, monopile with rigid foundation.


     17         NUMBER OF SEGMENTS                         ---     
 3.40460E+02    SPEED OF SOUND                          METERS/SEC 
 1.46400E-05    KINEMATIC VISCOSITY                       M2/SEC   
 1.00000E+00    TIP LIFT CURVE SLOPE                       ---     
      T         LOGICAL INDICATING ROUNDED TIP             ---     

      T         FLAG TO COMPUTE BLUNTNESS NOISE            ---     
      T         FLAG TO COMPUTE LBL NOISE                  ---     
      T         FLAG TO COMPUTE TIP NOISE                  ---     
      2         FLAG TO TRIP BOUNDARY LAYER                ---     
      T         FLAG TO COMPUTE TBLTE NOISE                ---     
      T         FLAG TO COMPUTE Turbulent Inflow NOISE     ---     

 Mean Wind Speed =         26.00000 m/s
 Turbulence Intensity =     0.00000 %

 -152.6000     0.0000     0.0000  (x,y,z) Observer location relative to tower base centerline

 Segment#      C         L         H        PSI   
---------- --------- --------- --------- ---------
         1     3.642     2.733     0.002    12.500
         2     3.904     2.733     0.002    12.500
         3     4.129     2.733     0.002    12.500
         4     4.349     4.100     0.002    12.500
         5     4.499     4.100     0.002    12.500
         6     4.501     4.100     0.002    12.500
         7     4.393     4.100     0.002    12.500
         8     4.235     4.100     0.002    12.500
         9     4.028     4.100     0.002    12.500
        10     3.771     4.100     0.002    12.500
        11     3.464     4.100     0.002    12.500
        12     3.134     4.100     0.002    12.500
        13     2.792     4.100     0.002    12.500
        14     2.431     4.100     0.002    12.500
        15     2.110     2.733     0.002    12.500
        16     1.839     2.733     0.002    12.500
        17     1.551     2.733     0.002    12.500
 
                                                    ONE-THIRD OCTAVE
                                                  SOUND PRESSURE LEVELS



                       PRESSURE        SUCTION      SEPARATION   
      FREQUENCY(HZ)    SIDE TBL       SIDE TBL       SIDE TBL        LAMINAR      BLUNTNESS          TIP          INFLOW         TOTAL      

     -------------- -------------- -------------- -------------- -------------- -------------- -------------- -------------- -------------- 

        100.000          6.346         39.038         59.419          0.000         -2.687         31.678          0.000         59.466
        125.000          8.766         37.554         57.659          0.000         -1.017         34.863          0.000         57.723
        160.000         11.212         35.833         55.519          0.000          0.831         37.732          0.000         55.637
        200.000         13.241         34.241         53.460          0.000          2.502         39.735          0.000         53.690
        250.000         15.125         32.587         51.278          0.000          4.175         41.176          0.000         51.737
        315.000         16.949         30.782         48.878          0.000          5.910         42.076          0.000         49.760
        400.000         18.728         28.790         46.244          0.000          7.704         42.373          0.000         47.797
        500.000         20.321         26.788         43.631          0.000          9.381         42.070          0.000         45.996
        630.000         21.927         24.544         40.748          0.000         11.120         41.163          0.000         44.049
        800.000         23.577         22.014         37.553          0.000         12.918         39.592          0.000         41.819
       1000.000         25.067         19.434         34.352          0.000         14.597         37.542          0.000         39.464
       1250.000         25.687         16.621         30.924          0.000         16.266         34.931          0.000         36.820
       1600.000         25.149         13.210         26.847          0.000         18.048         31.386          0.000         33.564
       2000.000         23.686          9.832         22.885          0.000         19.426         27.590          0.000         30.411
       2500.000         22.145          6.151         18.637          0.000         16.832         23.231          0.000         26.987
       3150.000         20.542          1.997         13.911          0.000          1.246         18.123          0.000         23.133
       4000.000         18.843         -2.688          8.649          0.000        -14.891         12.207          0.000         20.049
       5000.000         17.189         -7.447          3.359          0.000        -29.965          6.099          0.000         17.692
       6300.000         15.381        -12.789         -2.531          0.000        -45.577         -0.822          0.000         15.558
       8000.000         13.380        -18.780         -9.089          0.000        -61.714         -8.612          0.000         13.434
      10000.000         11.361        -24.828        -15.676          0.000        -76.788        -16.472          0.000         11.378
      12500.000          9.174        -31.334        -22.736          0.000        -91.862        -24.896          0.000          9.179
      16000.000          6.525        -39.074        -31.129          0.000       -108.537        -34.874          0.000          6.526
      20000.000          3.897        -46.478        -39.272          0.000       -123.611        -44.487          0.000          3.897
      25000.000          1.020        -53.675        -47.971          0.000       -138.685        -54.666          0.000          1.020
      31500.000         -2.249        -58.632        -57.581          0.000       -154.297        -65.804          0.000         -2.249
      40000.000         -5.968        -60.045        -68.088          0.000       -170.434        -77.954          0.000         -5.968
