
These predictions were generated by FAST (v7.01.00a-bjj, 16-Feb-2012) on 02-Jan-2014 at 12:13:56.
The aerodynamic calculations were made by AeroDyn (v13.00.01a-bjj, 16-Feb-2012).

 NREL 5.0 MW Baseline Wind Turbine for Use in Offshore Analysis.  Sea-based, monopile with rigid foundation.

 Total Overall Sound Pressure Level (dB)
 
    Time	  Azimuth	Bl1-Elem 1	Bl1-Elem 2	Bl1-Elem 3	Bl1-Elem 4	Bl1-Elem 5	Bl1-Elem 6	Bl1-Elem 7	Bl1-Elem 8	Bl1-Elem 9	Bl1-Elem10	Bl1-Elem11	Bl1-Elem12	Bl1-Elem13	Bl1-Elem14	Bl1-Elem15	Bl1-Elem16	Bl1-Elem17	Bl2-Elem 1	Bl2-Elem 2	Bl2-Elem 3	Bl2-Elem 4	Bl2-Elem 5	Bl2-Elem 6	Bl2-Elem 7	Bl2-Elem 8	Bl2-Elem 9	Bl2-Elem10	Bl2-Elem11	Bl2-Elem12	Bl2-Elem13	Bl2-Elem14	Bl2-Elem15	Bl2-Elem16	Bl2-Elem17	Bl3-Elem 1	Bl3-Elem 2	Bl3-Elem 3	Bl3-Elem 4	Bl3-Elem 5	Bl3-Elem 6	Bl3-Elem 7	Bl3-Elem 8	Bl3-Elem 9	Bl3-Elem10	Bl3-Elem11	Bl3-Elem12	Bl3-Elem13	Bl3-Elem14	Bl3-Elem15	Bl3-Elem16	Bl3-Elem17
   0.013	   0.915	 -50.658	 -46.471	 -40.029	 -28.233	 -17.070	  -7.814	  -0.310	   5.755	  10.814	  15.174	  19.052	  22.551	  25.751	  28.739	  29.361	  26.942	  48.372	 -45.950	 -41.031	 -33.866	 -22.234	 -11.557	  -2.619	   4.770	  10.884	  16.098	  20.682	  24.824	  28.605	  32.095	  37.611	  43.801	  48.628	  56.511	 -54.572	 -50.714	 -45.330	 -32.963	 -20.130	  -9.486	  -0.987	   5.765	  11.310	  16.014	  20.137	  23.815	  27.147	  30.228	  31.528	  38.607	  48.872
   0.025	   1.830	 -50.632	 -46.450	 -40.022	 -28.236	 -17.073	  -7.815	  -0.308	   5.761	  10.823	  15.187	  19.069	  22.571	  25.774	  28.765	  29.389	  26.972	  48.415	 -45.995	 -41.060	 -33.875	 -22.230	 -11.548	  -2.607	   4.784	  10.899	  16.115	  20.702	  24.845	  28.628	  32.121	  37.638	  43.830	  48.659	  56.533	 -54.574	 -50.719	 -45.335	 -32.967	 -20.137	  -9.498	  -1.003	   5.744	  11.284	  15.983	  20.101	  23.775	  27.102	  30.178	  31.475	  38.552	  48.813
   0.038	   2.745	 -50.441	 -46.209	 -39.683	 -20.299	 -12.073	  -3.975	   2.200	   7.591	  12.429	  16.522	  20.236	  23.634	  26.672	  29.520	  33.868	  39.877	  49.013	 -46.033	 -41.080	 -33.862	 -14.738	  -7.007	   0.842	   7.135	  12.711	  17.719	  22.024	  25.935	  29.615	  38.185	  46.236	  49.745	  53.593	  58.705	 -54.545	 -50.694	 -45.299	 -25.589	 -15.371	  -5.853	   1.295	   7.390	  12.733	  17.192	  21.146	  24.698	  27.856	  34.578	  40.211	  44.984	  51.162
   0.050	   3.660	 -50.411	 -46.186	 -39.676	 -20.307	 -12.078	  -3.977	   2.202	   7.597	  12.439	  16.537	  20.255	  23.657	  26.699	  29.549	  33.900	  39.911	  49.056	 -46.079	 -41.113	 -33.878	 -14.741	  -7.006	   0.845	   7.140	  12.719	  17.729	  22.037	  25.949	  29.633	  38.205	  46.259	  49.771	  53.620	  58.732	 -54.538	 -50.689	 -45.294	 -25.584	 -15.370	  -5.856	   1.287	   7.378	  12.717	  17.172	  21.121	  24.669	  27.823	  34.542	  40.172	  44.942	  51.118
   0.063	   4.575	 -50.119	 -45.802	 -39.126	 -19.819	 -11.652	  -3.626	   2.524	   7.898	  12.706	  16.782	  20.476	  23.850	  26.875	  26.495	  35.213	  40.862	  49.376	 -46.099	 -41.103	 -33.819	 -14.788	  -6.972	   0.905	   7.235	  12.828	  17.834	  22.114	  26.034	  25.374	  39.326	  46.975	  50.319	  54.063	  58.917	 -54.472	 -50.627	 -45.197	 -25.547	 -15.312	  -5.816	   1.338	   7.432	  12.759	  17.207	  21.132	  24.677	  27.815	  34.880	  40.387	  45.074	  51.136
   0.075	   5.490	 -50.089	 -45.779	 -39.120	 -19.827	 -11.658	  -3.628	   2.526	   7.905	  12.717	  16.797	  20.495	  23.873	  26.902	  26.525	  35.246	  40.896	  49.420	 -46.145	 -41.135	 -33.835	 -14.790	  -6.971	   0.908	   7.240	  12.835	  17.844	  22.126	  26.048	  25.390	  39.345	  46.997	  50.343	  54.088	  58.943	 -54.464	 -50.621	 -45.192	 -25.543	 -15.311	  -5.820	   1.330	   7.420	  12.743	  17.186	  21.108	  24.649	  27.783	  34.844	  40.348	  45.033	  51.093
   0.087	   6.405	 -49.846	 -45.457	 -38.667	 -19.382	 -11.282	  -3.315	   2.808	   8.161	  12.946	  17.007	  20.686	  24.044	  27.059	  29.096	  36.376	  41.738	  49.723	 -46.138	 -41.084	 -33.728	 -14.681	  -6.851	   1.028	   7.363	  12.959	  17.960	  22.227	  26.145	  28.422	  40.326	  47.647	  50.845	  54.498	  59.122	 -54.374	 -50.533	 -45.049	 -25.365	 -15.158	  -5.698	   1.435	   7.512	  12.818	  17.248	  21.148	  24.680	  27.802	  35.463	  40.724	  45.300	  51.190
   0.100	   7.320	 -49.816	 -45.435	 -38.663	 -19.391	 -11.288	  -3.317	   2.810	   8.167	  12.956	  17.022	  20.705	  24.067	  27.086	  29.127	  36.410	  41.774	  49.766	 -46.184	 -41.117	 -33.743	 -14.683	  -6.850	   1.031	   7.368	  12.966	  17.969	  22.238	  26.159	  28.437	  40.344	  47.668	  50.868	  54.522	  59.146	 -54.365	 -50.527	 -45.044	 -25.360	 -15.158	  -5.701	   1.428	   7.500	  12.802	  17.228	  21.124	  24.653	  27.771	  35.429	  40.686	  45.261	  51.148
   0.113	   8.235	 -49.572	 -45.106	 -38.196	 -18.934	 -10.910	  -3.004	   3.091	   8.421	  13.184	  17.230	  20.894	  24.237	  27.242	  31.078	  37.454	  42.571	  50.073	 -46.180	 -41.067	 -33.642	 -14.563	  -6.730	   1.150	   7.489	  13.087	  18.079	  22.337	  26.253	  30.519	  41.235	  48.275	  51.340	  54.904	  59.312	 -54.273	 -50.435	 -44.894	 -25.163	 -14.996	  -5.574	   1.536	   7.594	  12.879	  17.292	  21.166	  24.686	  27.792	  36.019	  41.051	  45.520	  51.243
   0.125	   9.150	 -49.541	 -45.085	 -38.193	 -18.943	 -10.916	  -3.006	   3.093	   8.427	  13.194	  17.245	  20.914	  24.260	  27.269	  31.109	  37.488	  42.606	  50.116	 -46.226	 -41.099	 -33.656	 -14.564	  -6.728	   1.153	   7.495	  13.094	  18.088	  22.348	  26.266	  30.534	  41.252	  48.295	  51.361	  54.926	  59.334	 -54.264	 -50.428	 -44.888	 -25.159	 -14.996	  -5.578	   1.528	   7.582	  12.864	  17.272	  21.143	  24.659	  27.762	  35.985	  41.015	  45.481	  51.203
   0.138	  10.065	 -49.296	 -44.750	 -37.734	 -18.488	 -10.543	  -2.696	   3.372	   8.679	  13.420	  17.453	  21.098	  24.428	  27.424	  32.742	  38.478	  43.374	  50.428	 -46.223	 -41.051	 -33.551	 -14.448	  -6.613	   1.268	   7.612	  13.211	  18.188	  22.445	  26.358	  32.188	  42.069	  48.864	  51.808	  55.281	  59.498	 -54.168	 -50.332	 -44.730	 -24.953	 -14.829	  -5.448	   1.639	   7.679	  12.942	  17.337	  21.186	  24.693	  27.784	  36.550	  41.368	  45.736	  51.300
   0.150	  10.980	 -49.265	 -44.730	 -37.732	 -18.498	 -10.550	  -2.700	   3.373	   8.685	  13.430	  17.468	  21.117	  24.452	  27.451	  32.773	  38.511	  43.410	  50.472	 -46.269	 -41.083	 -33.564	 -14.448	  -6.611	   1.272	   7.618	  13.218	  18.196	  22.455	  26.370	  32.202	  42.085	  48.882	  51.828	  55.303	  59.518	 -54.159	 -50.325	 -44.725	 -24.949	 -14.829	  -5.452	   1.631	   7.667	  12.927	  17.318	  21.163	  24.667	  27.754	  36.518	  41.333	  45.699	  51.261
   0.163	  11.895	 -49.085	 -44.486	 -37.410	 -18.184	 -10.296	  -2.491	   3.559	   8.851	  13.579	  17.605	  21.237	  24.565	  27.557	  33.589	  39.043	  43.829	  50.667	 -46.333	 -41.135	 -33.591	 -14.451	  -6.596	   1.299	   7.656	  13.263	  18.237	  22.498	  26.412	  32.942	  42.489	  49.172	  52.057	  55.485	  59.631	 -54.135	 -50.303	 -44.688	 -24.904	 -14.801	  -5.436	   1.638	   7.667	  12.918	  17.303	  21.140	  24.638	  27.720	  36.561	  41.340	  45.689	  51.223
   0.175	  12.810	 -49.056	 -44.466	 -37.406	 -18.191	 -10.300	  -2.492	   3.562	   8.859	  13.591	  17.620	  21.256	  24.588	  27.583	  33.619	  39.076	  43.863	  50.708	 -46.379	 -41.162	 -33.596	 -14.441	  -6.584	   1.312	   7.669	  13.277	  18.252	  22.513	  26.428	  32.959	  42.507	  49.191	  52.078	  55.506	  59.650	 -54.135	 -50.305	 -44.691	 -24.908	 -14.808	  -5.448	   1.622	   7.646	  12.894	  17.274	  21.107	  24.601	  27.679	  36.516	  41.293	  45.639	  51.171
   0.188	  13.725	 -48.922	 -44.290	 -37.188	 -17.984	 -10.136	  -2.359	   3.678	   8.962	  13.683	  17.706	  21.334	  24.663	  27.655	  33.957	  39.307	  44.051	  50.821	 -46.493	 -41.293	 -33.728	 -14.542	  -6.653	   1.265	   7.639	  13.259	  18.242	  22.509	  26.429	  33.162	  42.631	  49.288	  52.159	  55.571	  59.690	 -54.153	 -50.328	 -44.734	 -24.972	 -14.872	  -5.508	   1.562	   7.584	  12.831	  17.210	  21.046	  24.537	  27.615	  36.203	  41.067	  45.452	  51.050
   0.200	  14.640	 -48.892	 -44.270	 -37.184	 -17.990	 -10.140	  -2.359	   3.682	   8.970	  13.695	  17.722	  21.354	  24.687	  27.683	  33.988	  39.340	  44.087	  50.863	 -46.538	 -41.319	 -33.732	 -14.531	  -6.641	   1.278	   7.652	  13.273	  18.256	  22.524	  26.445	  33.177	  42.648	  49.306	  52.177	  55.590	  59.707	 -54.153	 -50.330	 -44.737	 -24.977	 -14.880	  -5.520	   1.545	   7.563	  12.806	  17.181	  21.013	  24.501	  27.574	  36.159	  41.021	  45.403	  50.999
   0.213	  15.555	 -48.759	 -44.096	 -36.970	 -17.787	  -9.978	  -2.228	   3.796	   9.071	  13.787	  17.807	  21.431	  24.762	  27.755	  34.314	  39.566	  44.272	  50.976	 -46.655	 -41.455	 -33.871	 -14.638	  -6.715	   1.226	   7.618	  13.251	  18.242	  22.517	  26.443	  33.357	  42.759	  49.393	  52.251	  55.648	  59.742	 -54.169	 -50.350	 -44.776	 -25.038	 -14.940	  -5.577	   1.487	   7.503	  12.745	  17.118	  20.953	  24.438	  27.511	  35.840	  40.793	  45.216	  50.880
   0.225	  16.470	 -48.728	 -44.075	 -36.965	 -17.794	  -9.982	  -2.228	   3.800	   9.080	  13.800	  17.823	  21.452	  24.787	  27.783	  34.345	  39.600	  44.308	  51.019	 -46.700	 -41.481	 -33.875	 -14.627	  -6.703	   1.239	   7.631	  13.264	  18.256	  22.531	  26.456	  33.372	  42.775	  49.409	  52.267	  55.666	  59.757	 -54.169	 -50.352	 -44.779	 -25.042	 -14.948	  -5.590	   1.470	   7.482	  12.720	  17.090	  20.921	  24.402	  27.472	  35.797	  40.747	  45.168	  50.831
   0.237	  17.385	 -48.595	 -43.901	 -36.753	 -17.593	  -9.822	  -2.098	   3.914	   9.181	  13.891	  17.909	  21.530	  24.862	  27.856	  34.669	  39.827	  44.494	  51.132	 -46.819	 -41.621	 -34.018	 -14.738	  -6.781	   1.185	   7.594	  13.240	  18.240	  22.522	  26.452	  33.538	  42.879	  49.491	  52.336	  55.720	  59.787	 -54.181	 -50.368	 -44.812	 -25.097	 -15.003	  -5.643	   1.415	   7.424	  12.662	  17.030	  20.863	  24.342	  27.411	  35.481	  40.521	  44.985	  50.715
   0.250	  18.300	 -48.563	 -43.880	 -36.749	 -17.600	  -9.826	  -2.097	   3.919	   9.190	  13.904	  17.926	  21.552	  24.887	  27.885	  34.701	  39.862	  44.531	  51.176	 -46.863	 -41.647	 -34.022	 -14.727	  -6.769	   1.197	   7.606	  13.253	  18.253	  22.534	  26.465	  33.551	  42.892	  49.505	  52.351	  55.735	  59.800	 -54.180	 -50.370	 -44.815	 -25.102	 -15.011	  -5.655	   1.399	   7.404	  12.637	  17.001	  20.831	  24.306	  27.372	  35.439	  40.476	  44.938	  50.666
   0.263	  19.215	 -48.430	 -43.706	 -36.538	 -17.402	  -9.668	  -1.968	   4.032	   9.291	  13.996	  18.011	  21.630	  24.963	  27.958	  35.021	  40.088	  44.717	  51.291	 -46.983	 -41.789	 -34.170	 -14.843	  -6.850	   1.140	   7.567	  13.226	  18.235	  22.523	  26.458	  33.703	  42.989	  49.582	  52.414	  55.784	  59.827	 -54.190	 -50.383	 -44.843	 -25.150	 -15.061	  -5.705	   1.347	   7.349	  12.581	  16.943	  20.776	  24.248	  27.314	  35.125	  40.254	  44.758	  50.554
   0.275	  20.130	 -48.398	 -43.685	 -36.534	 -17.408	  -9.671	  -1.967	   4.037	   9.300	  14.010	  18.029	  21.652	  24.989	  27.988	  35.055	  40.124	  44.755	  51.336	 -47.026	 -41.814	 -34.173	 -14.832	  -6.838	   1.152	   7.579	  13.238	  18.246	  22.534	  26.470	  33.715	  43.001	  49.595	  52.427	  55.797	  59.837	 -54.189	 -50.385	 -44.846	 -25.154	 -15.069	  -5.717	   1.331	   7.329	  12.557	  16.915	  20.745	  24.213	  27.276	  35.084	  40.211	  44.713	  50.507
   0.287	  21.045	 -48.264	 -43.511	 -36.326	 -17.212	  -9.515	  -1.840	   4.149	   9.402	  14.101	  18.115	  21.729	  25.066	  28.061	  35.372	  40.352	  44.942	  51.452	 -47.148	 -41.959	 -34.325	 -14.951	  -6.923	   1.092	   7.536	  13.209	  18.226	  22.521	  26.461	  33.854	  43.090	  49.667	  52.485	  55.842	  59.860	 -54.195	 -50.393	 -44.867	 -25.195	 -15.113	  -5.762	   1.282	   7.277	  12.503	  16.860	  20.691	  24.157	  27.219	  34.774	  39.993	  44.536	  50.399
   0.300	  21.960	 -48.231	 -43.489	 -36.321	 -17.218	  -9.518	  -1.838	   4.155	   9.412	  14.116	  18.134	  21.752	  25.093	  28.092	  35.406	  40.388	  44.981	  51.498	 -47.191	 -41.984	 -34.329	 -14.940	  -6.911	   1.104	   7.548	  13.220	  18.237	  22.531	  26.471	  33.864	  43.100	  49.677	  52.496	  55.853	  59.868	 -54.194	 -50.395	 -44.870	 -25.200	 -15.122	  -5.775	   1.266	   7.256	  12.479	  16.832	  20.660	  24.123	  27.182	  34.734	  39.951	  44.492	  50.353
   0.312	  22.875	 -48.098	 -43.316	 -36.116	 -17.026	  -9.363	  -1.712	   4.266	   9.513	  14.207	  18.219	  21.830	  25.169	  28.166	  35.720	  40.618	  45.168	  51.615	 -47.314	 -42.132	 -34.485	 -15.064	  -6.999	   1.041	   7.503	  13.189	  18.215	  22.515	  26.460	  33.989	  43.182	  49.743	  52.549	  55.893	  59.887	 -54.196	 -50.400	 -44.886	 -25.233	 -15.161	  -5.816	   1.221	   7.207	  12.428	  16.779	  20.609	  24.069	  27.128	  34.428	  39.738	  44.320	  50.248
   0.325	  23.790	 -48.064	 -43.294	 -36.111	 -17.032	  -9.366	  -1.710	   4.272	   9.523	  14.222	  18.238	  21.853	  25.197	  28.197	  35.755	  40.655	  45.208	  51.662	 -47.356	 -42.157	 -34.487	 -15.052	  -6.987	   1.052	   7.514	  13.199	  18.225	  22.525	  26.469	  33.998	  43.190	  49.751	  52.557	  55.901	  59.893	 -54.195	 -50.401	 -44.889	 -25.238	 -15.170	  -5.828	   1.204	   7.187	  12.405	  16.752	  20.579	  24.036	  27.092	  34.389	  39.697	  44.278	  50.204
   0.338	  24.705	 -47.931	 -43.122	 -35.908	 -16.842	  -9.214	  -1.585	   4.383	   9.623	  14.313	  18.324	  21.931	  25.274	  28.271	  36.066	  40.884	  45.395	  51.779	 -47.480	 -42.307	 -34.648	 -15.180	  -7.079	   0.986	   7.467	  13.165	  18.200	  22.507	  26.455	  34.110	  43.264	  49.810	  52.605	  55.936	  59.907	 -54.194	 -50.403	 -44.899	 -25.264	 -15.202	  -5.865	   1.163	   7.142	  12.356	  16.702	  20.530	  23.984	  27.040	  34.093	  39.489	  44.110	  50.103
   0.350	  25.620	 -47.896	 -43.100	 -35.903	 -16.848	  -9.216	  -1.583	   4.389	   9.634	  14.329	  18.344	  21.955	  25.302	  28.304	  36.101	  40.923	  45.436	  51.827	 -47.521	 -42.331	 -34.650	 -15.169	  -7.067	   0.998	   7.478	  13.175	  18.209	  22.515	  26.463	  34.117	  43.271	  49.817	  52.611	  55.943	  59.910	 -54.193	 -50.404	 -44.901	 -25.270	 -15.212	  -5.878	   1.147	   7.122	  12.333	  16.675	  20.500	  23.951	  27.004	  34.055	  39.449	  44.069	  50.060
   0.363	  26.535	 -47.764	 -42.929	 -35.703	 -16.661	  -9.066	  -1.459	   4.499	   9.734	  14.420	  18.430	  22.033	  25.379	  21.305	  36.413	  41.151	  45.623	  51.945	 -47.646	 -42.483	 -34.814	 -15.300	  -7.161	   0.929	   7.427	  13.139	  18.182	  22.495	  26.447	  34.216	  43.336	  49.870	  52.653	  55.972	  59.920	 -54.189	 -50.401	 -44.905	 -25.289	 -15.239	  -5.910	   1.109	   7.079	  12.288	  16.627	  20.453	  23.902	  26.954	  33.763	  39.246	  43.906	  49.963
   0.375	  27.450	 -47.728	 -42.906	 -35.697	 -16.667	  -9.068	  -1.457	   4.506	   9.745	  14.436	  18.450	  22.058	  25.408	  21.338	  36.449	  41.190	  45.665	  51.994	 -47.686	 -42.507	 -34.816	 -15.289	  -7.150	   0.940	   7.438	  13.148	  18.190	  22.502	  26.453	  34.222	  43.341	  49.874	  52.657	  55.975	  59.922	 -54.187	 -50.402	 -44.908	 -25.294	 -15.248	  -5.923	   1.093	   7.059	  12.265	  16.601	  20.424	  23.870	  26.920	  33.726	  39.208	  43.866	  49.922
   0.388	  28.365	 -47.596	 -42.737	 -35.500	 -16.483	  -8.921	  -1.335	   4.615	   9.844	  14.526	  18.535	  22.135	  25.486	  23.083	  36.758	  41.418	  45.852	  52.113	 -47.811	 -42.661	 -34.984	 -15.424	  -7.247	   0.869	   7.385	  13.109	  18.161	  22.479	  26.435	  34.307	  43.399	  49.921	  52.694	  56.000	  59.927	 -54.180	 -50.396	 -44.906	 -25.305	 -15.270	  -5.951	   1.059	   7.020	  12.222	  16.556	  20.379	  23.823	  26.872	  33.441	  39.011	  43.708	  49.829
   0.400	  29.280	 -47.560	 -42.713	 -35.494	 -16.489	  -8.922	  -1.332	   4.622	   9.856	  14.543	  18.556	  22.161	  25.515	  23.117	  36.796	  41.458	  45.895	  52.162	 -47.850	 -42.684	 -34.986	 -15.412	  -7.236	   0.880	   7.395	  13.118	  18.168	  22.485	  26.440	  34.311	  43.402	  49.923	  52.696	  56.001	  59.926	 -54.178	 -50.397	 -44.909	 -25.311	 -15.279	  -5.963	   1.042	   7.000	  12.200	  16.530	  20.351	  23.792	  26.839	  33.405	  38.973	  43.670	  49.789
   0.412	  30.195	 -47.429	 -42.546	 -35.301	 -16.309	  -8.777	  -1.212	   4.729	   9.955	  14.633	  18.642	  22.238	  25.592	  24.262	  37.101	  41.685	  46.082	  52.281	 -47.976	 -42.841	 -35.157	 -15.551	  -7.336	   0.806	   7.340	  13.076	  18.137	  22.460	  26.420	  34.382	  43.451	  49.963	  52.726	  56.020	  59.928	 -54.168	 -50.387	 -44.902	 -25.315	 -15.295	  -5.987	   1.012	   6.964	  12.160	  16.487	  20.308	  23.747	  26.794	  33.125	  38.783	  43.518	  49.702
   0.425	  31.110	 -47.392	 -42.522	 -35.295	 -16.314	  -8.779	  -1.209	   4.737	   9.967	  14.650	  18.663	  22.264	  25.623	  24.296	  37.139	  41.726	  46.125	  52.332	 -48.014	 -42.863	 -35.158	 -15.540	  -7.325	   0.816	   7.349	  13.084	  18.143	  22.465	  26.423	  34.385	  43.452	  49.963	  52.725	  56.019	  59.924	 -54.166	 -50.387	 -44.904	 -25.321	 -15.304	  -6.000	   0.996	   6.945	  12.138	  16.463	  20.280	  23.717	  26.761	  33.091	  38.746	  43.480	  49.663
   0.438	  32.025	 -47.261	 -42.356	 -35.104	 -16.138	  -8.636	  -1.090	   4.843	  10.064	  14.739	  18.748	  22.342	  25.700	  25.224	  37.441	  41.952	  46.312	  52.452	 -48.141	 -43.021	 -35.333	 -15.682	  -7.428	   0.739	   7.291	  13.040	  18.109	  22.438	  26.400	  34.441	  43.493	  49.997	  52.749	  56.033	  59.921	 -54.152	 -50.374	 -44.891	 -25.317	 -15.314	  -6.018	   0.969	   6.912	  12.101	  16.423	  20.240	  23.675	  26.718	  32.818	  38.561	  43.333	  49.580
   0.450	  32.940	 -47.223	 -42.332	 -35.098	 -16.142	  -8.637	  -1.087	   4.851	  10.077	  14.757	  18.770	  22.368	  25.730	  25.259	  37.480	  41.993	  46.356	  52.503	 -48.178	 -43.043	 -35.334	 -15.670	  -7.417	   0.749	   7.300	  13.048	  18.115	  22.442	  26.403	  34.441	  43.492	  49.995	  52.746	  56.030	  59.915	 -54.150	 -50.374	 -44.893	 -25.324	 -15.324	  -6.031	   0.953	   6.893	  12.079	  16.398	  20.213	  23.645	  26.687	  32.785	  38.526	  43.297	  49.543
   0.463	  33.855	 -47.094	 -42.168	 -34.911	 -15.970	  -8.497	  -0.970	   4.956	  10.174	  14.846	  18.855	  22.446	  25.808	  26.064	  37.778	  42.218	  46.543	  52.623	 -48.305	 -43.202	 -35.512	 -15.816	  -7.524	   0.670	   7.240	  13.001	  18.079	  22.412	  26.377	  34.484	  43.524	  50.021	  52.764	  56.038	  59.907	 -54.133	 -50.357	 -44.874	 -25.313	 -15.328	  -6.046	   0.931	   6.864	  12.046	  16.361	  20.176	  23.606	  26.646	  32.520	  38.348	  43.157	  49.464
   0.475	  34.770	 -47.056	 -42.144	 -34.905	 -15.975	  -8.498	  -0.966	   4.965	  10.187	  14.864	  18.877	  22.473	  25.839	  26.099	  37.817	  42.261	  46.587	  52.675	 -48.341	 -43.224	 -35.513	 -15.804	  -7.513	   0.680	   7.248	  13.008	  18.084	  22.415	  26.378	  34.483	  43.522	  50.017	  52.759	  56.033	  59.899	 -54.130	 -50.357	 -44.877	 -25.319	 -15.338	  -6.059	   0.915	   6.845	  12.024	  16.337	  20.150	  23.577	  26.616	  32.488	  38.314	  43.122	  49.428
   0.488	  35.685	 -46.927	 -41.982	 -34.722	 -15.806	  -8.361	  -0.851	   5.069	  10.283	  14.952	  18.962	  22.550	  25.916	  26.815	  38.112	  42.484	  46.773	  52.795	 -48.467	 -43.384	 -35.694	 -15.953	  -7.622	   0.598	   7.186	  12.959	  18.045	  22.383	  26.351	  34.512	  43.545	  50.036	  52.770	  56.036	  59.887	 -54.110	 -50.336	 -44.852	 -25.300	 -15.336	  -6.068	   0.896	   6.819	  11.994	  16.303	  20.115	  23.540	  26.578	  32.231	  38.143	  42.987	  49.354
   0.500	  36.600	 -46.888	 -41.957	 -34.715	 -15.810	  -8.361	  -0.847	   5.078	  10.296	  14.971	  18.985	  22.578	  25.948	  26.851	  38.152	  42.527	  46.818	  52.848	 -48.503	 -43.405	 -35.694	 -15.942	  -7.611	   0.608	   7.194	  12.965	  18.049	  22.385	  26.350	  34.510	  43.541	  50.030	  52.763	  56.028	  59.876	 -54.107	 -50.336	 -44.854	 -25.307	 -15.346	  -6.081	   0.880	   6.800	  11.973	  16.280	  20.089	  23.513	  26.549	  32.200	  38.111	  42.954	  49.320
   0.512	  37.515	 -46.761	 -41.798	 -34.536	 -15.651	  -8.227	  -0.734	   5.181	  10.391	  15.058	  19.068	  22.655	  26.025	  27.506	  38.443	  42.749	  47.004	  52.968	 -48.629	 -43.566	 -35.878	 -16.094	  -7.723	   0.523	   7.129	  12.914	  18.009	  22.351	  26.321	  34.525	  43.555	  50.042	  52.768	  56.026	  59.860	 -54.084	 -50.312	 -44.823	 -25.281	 -15.338	  -6.086	   0.865	   6.778	  11.945	  16.248	  20.057	  23.478	  26.513	  31.952	  37.947	  42.824	  49.250
   0.525	  38.430	 -46.722	 -41.773	 -34.529	 -15.655	  -8.227	  -0.730	   5.190	  10.405	  15.077	  19.092	  22.683	  26.057	  27.543	  38.484	  42.793	  47.050	  53.022	 -48.663	 -43.587	 -35.878	 -16.083	  -7.712	   0.532	   7.136	  12.919	  18.011	  22.351	  26.319	  34.521	  43.549	  50.034	  52.759	  56.015	  59.846	 -54.081	 -50.311	 -44.826	 -25.288	 -15.348	  -6.099	   0.850	   6.760	  11.925	  16.226	  20.033	  23.451	  26.485	  31.922	  37.916	  42.792	  49.217
   0.538	  39.345	 -46.596	 -41.617	 -34.354	 -15.500	  -8.096	  -0.619	   5.291	  10.498	  15.164	  19.175	  22.761	  26.134	  28.152	  38.772	  43.014	  47.233	  53.142	 -48.790	 -43.749	 -36.064	 -16.238	  -7.827	   0.446	   7.069	  12.866	  17.969	  22.315	  26.286	  34.522	  43.554	  50.039	  52.758	  56.007	  59.826	 -54.054	 -50.283	 -44.789	 -25.254	 -15.335	  -6.100	   0.839	   6.740	  11.900	  16.197	  20.003	  23.419	  26.452	  31.684	  37.760	  42.668	  49.151
   0.550	  40.260	 -46.556	 -41.591	 -34.346	 -15.503	  -8.096	  -0.615	   5.301	  10.513	  15.183	  19.199	  22.790	  26.167	  28.189	  38.813	  43.058	  47.280	  53.196	 -48.823	 -43.769	 -36.065	 -16.226	  -7.816	   0.454	   7.075	  12.870	  17.971	  22.314	  26.283	  34.516	  43.547	  50.029	  52.746	  55.994	  59.810	 -54.051	 -50.282	 -44.791	 -25.261	 -15.345	  -6.113	   0.823	   6.723	  11.881	  16.175	  19.979	  23.394	  26.425	  31.655	  37.730	  42.638	  49.120
   0.562	  41.175	 -46.432	 -41.437	 -34.175	 -15.352	  -7.968	  -0.506	   5.400	  10.605	  15.269	  19.282	  22.867	  26.243	  28.761	  39.097	  43.277	  47.462	  53.317	 -48.949	 -43.932	 -36.253	 -16.387	  -7.933	   0.366	   7.006	  12.815	  17.926	  22.276	  26.249	  34.503	  43.542	  50.026	  52.739	  55.981	  59.785	 -54.021	 -50.251	 -44.748	 -25.220	 -15.326	  -6.108	   0.816	   6.707	  11.859	  16.150	  19.952	  23.364	  26.394	  31.427	  37.582	  42.521	  49.059
   0.575	  42.090	 -46.391	 -41.412	 -34.168	 -15.356	  -7.967	  -0.501	   5.410	  10.620	  15.289	  19.306	  22.896	  26.277	  28.799	  39.138	  43.322	  47.509	  53.371	 -48.981	 -43.951	 -36.254	 -16.376	  -7.923	   0.374	   7.012	  12.818	  17.927	  22.274	  26.244	  34.496	  43.533	  50.014	  52.725	  55.966	  59.766	 -54.017	 -50.249	 -44.751	 -25.228	 -15.336	  -6.121	   0.801	   6.690	  11.840	  16.128	  19.929	  23.339	  26.368	  31.400	  37.553	  42.491	  49.029
   0.588	  43.005	 -46.269	 -41.261	 -34.001	 -15.209	  -7.842	  -0.395	   5.508	  10.711	  15.374	  19.387	  22.972	  26.353	  29.339	  39.418	  43.538	  47.690	  53.492	 -49.107	 -44.114	 -36.444	 -16.541	  -8.043	   0.283	   6.941	  12.761	  17.880	  22.233	  26.207	  34.468	  43.519	  50.003	  52.711	  55.947	  59.737	 -53.984	 -50.214	 -44.702	 -25.179	 -15.311	  -6.113	   0.798	   6.677	  11.822	  16.106	  19.905	  23.313	  26.340	  31.186	  37.414	  42.381	  48.973
   0.600	  43.920	 -46.228	 -41.235	 -33.993	 -15.212	  -7.841	  -0.389	   5.519	  10.726	  15.394	  19.412	  23.002	  26.387	  29.377	  39.461	  43.584	  47.738	  53.547	 -49.138	 -44.133	 -36.444	 -16.530	  -8.034	   0.290	   6.946	  12.763	  17.880	  22.230	  26.201	  34.459	  43.507	  49.989	  52.695	  55.929	  59.716	 -53.981	 -50.212	 -44.704	 -25.187	 -15.321	  -6.125	   0.783	   6.660	  11.803	  16.085	  19.883	  23.289	  26.315	  31.160	  37.386	  42.353	  48.945
   0.613	  44.835	 -46.108	 -41.088	 -33.831	 -15.070	  -7.719	  -0.286	   5.615	  10.816	  15.478	  19.490	  23.078	  26.463	  29.891	  39.740	  43.799	  47.918	  53.667	 -49.263	 -44.296	 -36.637	 -16.699	  -8.157	   0.197	   6.872	  12.704	  17.831	  22.187	  26.162	  34.416	  43.484	  49.971	  52.675	  55.905	  59.682	 -53.944	 -50.174	 -44.650	 -25.131	 -15.290	  -6.112	   0.783	   6.652	  11.788	  16.065	  19.861	  23.265	  26.290	  30.960	  37.255	  42.250	  48.893
   0.625	  45.750	 -46.067	 -41.062	 -33.823	 -15.072	  -7.718	  -0.280	   5.625	  10.832	  15.499	  19.516	  23.108	  26.497	  29.930	  39.783	  43.845	  47.966	  53.723	 -49.293	 -44.315	 -36.637	 -16.688	  -8.148	   0.204	   6.877	  12.706	  17.830	  22.183	  26.155	  34.405	  43.470	  49.955	  52.656	  55.885	  59.659	 -53.941	 -50.172	 -44.652	 -25.139	 -15.300	  -6.125	   0.769	   6.635	  11.769	  16.045	  19.840	  23.242	  26.266	  30.934	  37.229	  42.224	  48.866
   0.637	  46.665	 -45.949	 -40.918	 -33.666	 -14.934	  -7.601	  -0.178	   5.720	  10.920	  15.582	  19.593	  23.183	  26.572	  30.421	  40.059	  44.058	  48.145	  53.842	 -49.418	 -44.478	 -36.832	 -16.859	  -8.273	   0.109	   6.801	  12.644	  17.779	  22.138	  26.113	  34.347	  43.437	  49.928	  52.629	  55.854	  59.620	 -53.901	 -50.129	 -44.592	 -25.076	 -15.263	  -6.107	   0.773	   6.630	  11.758	  16.029	  19.821	  23.220	  26.243	  30.746	  37.107	  42.128	  48.818
   0.650	  47.580	 -45.907	 -40.892	 -33.657	 -14.937	  -7.599	  -0.172	   5.731	  10.936	  15.603	  19.619	  23.214	  26.607	  30.460	  40.102	  44.104	  48.194	  53.899	 -49.447	 -44.496	 -36.831	 -16.848	  -8.264	   0.116	   6.805	  12.645	  17.776	  22.132	  26.105	  34.335	  43.422	  49.910	  52.608	  55.832	  59.594	 -53.897	 -50.127	 -44.594	 -25.083	 -15.274	  -6.119	   0.759	   6.614	  11.740	  16.009	  19.800	  23.199	  26.220	  30.723	  37.082	  42.103	  48.793
   0.663	  48.495	 -45.792	 -40.752	 -33.505	 -14.803	  -7.486	  -0.073	   5.823	  11.023	  15.685	  19.695	  23.289	  26.681	  30.930	  40.375	  44.316	  48.371	  54.017	 -49.570	 -44.658	 -37.027	 -17.021	  -8.392	   0.020	   6.728	  12.581	  17.723	  22.085	  26.061	  34.262	  43.378	  49.876	  52.575	  55.796	  59.552	 -53.855	 -50.081	 -44.528	 -25.013	 -15.231	  -6.097	   0.767	   6.612	  11.731	  15.996	  19.783	  23.180	  26.200	  30.548	  36.969	  42.014	  48.750
   0.675	  49.410	 -45.750	 -40.725	 -33.496	 -14.805	  -7.485	  -0.067	   5.834	  11.039	  15.706	  19.722	  23.319	  26.717	  30.969	  40.419	  44.362	  48.421	  54.074	 -49.598	 -44.676	 -37.027	 -17.010	  -8.383	   0.026	   6.731	  12.581	  17.720	  22.078	  26.051	  34.248	  43.361	  49.855	  52.552	  55.771	  59.524	 -53.850	 -50.079	 -44.530	 -25.021	 -15.242	  -6.109	   0.753	   6.596	  11.714	  15.977	  19.763	  23.159	  26.178	  30.525	  36.946	  41.991	  48.727
   0.688	  50.325	 -45.637	 -40.590	 -33.349	 -14.676	  -7.375	   0.029	   5.925	  11.125	  15.787	  19.797	  23.393	  26.790	  31.421	  40.688	  44.572	  48.597	  54.193	 -49.721	 -44.838	 -37.225	 -17.186	  -8.513	  -0.073	   6.651	  12.515	  17.665	  22.029	  26.005	  34.159	  43.307	  49.813	  52.511	  55.729	  59.477	 -53.805	 -50.029	 -44.459	 -24.944	 -15.194	  -6.082	   0.766	   6.598	  11.708	  15.966	  19.749	  23.143	  26.161	  30.363	  36.842	  41.909	  48.689
   0.700	  51.240	 -45.596	 -40.563	 -33.340	 -14.678	  -7.373	   0.036	   5.936	  11.141	  15.809	  19.824	  23.425	  26.826	  31.461	  40.732	  44.619	  48.647	  54.251	 -49.748	 -44.855	 -37.224	 -17.175	  -8.505	  -0.067	   6.654	  12.514	  17.661	  22.021	  25.993	  34.144	  43.289	  49.791	  52.486	  55.702	  59.446	 -53.800	 -50.026	 -44.461	 -24.952	 -15.204	  -6.095	   0.752	   6.583	  11.692	  15.948	  19.730	  23.123	  26.140	  30.342	  36.820	  41.887	  48.667
   0.713	  52.155	 -45.485	 -40.431	 -33.197	 -14.553	  -7.267	   0.130	   6.025	  11.225	  15.888	  19.898	  23.498	  26.899	  31.899	  40.997	  44.826	  48.822	  54.369	 -49.870	 -45.017	 -37.423	 -17.353	  -8.637	  -0.167	   6.573	  12.446	  17.604	  21.970	  25.945	  34.038	  43.225	  49.740	  52.439	  55.654	  59.395	 -53.751	 -49.973	 -44.383	 -24.868	 -15.150	  -6.063	   0.768	   6.588	  11.689	  15.941	  19.719	  23.110	  26.125	  30.195	  36.725	  41.813	  48.633
   0.725	  53.070	 -45.444	 -40.404	 -33.188	 -14.555	  -7.264	   0.137	   6.037	  11.242	  15.910	  19.925	  23.530	  26.935	  31.940	  41.041	  44.874	  48.872	  54.427	 -49.896	 -45.033	 -37.423	 -17.343	  -8.628	  -0.161	   6.575	  12.445	  17.599	  21.961	  25.932	  34.021	  43.204	  49.716	  52.412	  55.624	  59.362	 -53.747	 -49.970	 -44.385	 -24.876	 -15.161	  -6.075	   0.754	   6.573	  11.673	  15.923	  19.701	  23.091	  26.105	  30.175	  36.705	  41.792	  48.612
   0.738	  53.985	 -45.337	 -40.277	 -33.051	 -14.435	  -7.162	   0.228	   6.123	  11.325	  15.988	  19.999	  23.603	  27.007	  32.367	  41.302	  45.079	  49.045	  54.545	 -50.017	 -45.194	 -37.622	 -17.522	  -8.762	  -0.264	   6.491	  12.375	  17.540	  21.907	  25.882	  33.899	  43.130	  49.657	  52.358	  55.571	  59.306	 -53.695	 -49.913	 -44.302	 -24.785	 -15.101	  -6.039	   0.775	   6.582	  11.674	  15.919	  19.692	  23.080	  26.093	  30.042	  36.620	  41.726	  48.583
   0.750	  54.900	 -45.295	 -40.250	 -33.041	 -14.436	  -7.159	   0.235	   6.135	  11.342	  16.011	  20.026	  23.635	  27.044	  32.408	  41.347	  45.127	  49.096	  54.603	 -50.042	 -45.210	 -37.622	 -17.512	  -8.754	  -0.259	   6.493	  12.373	  17.534	  21.897	  25.868	  33.881	  43.107	  49.631	  52.328	  55.539	  59.271	 -53.690	 -49.910	 -44.304	 -24.793	 -15.112	  -6.052	   0.761	   6.567	  11.658	  15.902	  19.675	  23.062	  26.074	  30.023	  36.600	  41.707	  48.564