.. module:: aeroelasticse

.. _aeroelasticse:

Documentation
-------------
The important modules in the AeroelasticSE suite of codes include:


Run FAST
========

.. automodule:: AeroelasticSE.runFAST
  :members:
  :special-members:

Run TurbSim
===========

.. automodule:: AeroelasticSE.runTurbSim
   :members:
   :special-members:

FAST openMDAO Components
========================

.. automodule:: AeroelasticSE.FAST_component
   :members:
   :special-members:

Fused FAST
==========

.. automodule:: AeroelasticSE.FusedFAST
   :members:
   :special-members:

FAST VariableTree Runner
========================

.. automodule:: AeroelasticSE.FSTTemplate_runner
   :members:
   :special-members:


Run IEC
=======

This code can run and process a whole study of many run cases, including in parallel on a 
compute cluster.

.. automodule:: AeroelasticSE.iecApp
   :members:
   :special-members:



