AeroDyn airfoil file.
auto generated by airfoil.py (part of rotor TEAM)
0          Number of airfoil tables in this file   
