AeroDyn airfoil file.
auto generated by airfoil.py (part of rotor TEAM)
1          Number of airfoil tables in this file   
0          Table ID parameter                      
9.000000   Stall angle (deg)                       
0.000000   No longer used, enter zero              
0.000000   No longer used, enter zero              
0.000000   No longer used, enter zero              
-4.432000  Angle of attack for zero Cn for linear Cn curve (deg)
6.003100   Cn slope for zero lift for linear Cn curve (1/rad)
1.407300   Cn at stall value for positive angle of attack for linear Cn curve
-0.794500  Cn at stall value for negative angle of attack for linear Cn curve
-1.000000  Angle of attack for minimum CD (deg)    
0.005200   Minimum CD value                        
-180.000000 0.000000   0.019800  
-175.000000 0.374000   0.034100  
-170.000000 0.749000   0.095500  
-160.000000 0.659000   0.280700  
-155.000000 0.736000   0.391900  
-150.000000 0.783000   0.508600  
-145.000000 0.803000   0.626700  
-140.000000 0.798000   0.742700  
-135.000000 0.771000   0.853700  
-130.000000 0.724000   0.957400  
-125.000000 0.660000   1.051900  
-120.000000 0.581000   1.135500  
-115.000000 0.491000   1.207000  
-110.000000 0.390000   1.265600  
-105.000000 0.282000   1.310400  
-100.000000 0.169000   1.341000  
-95.000000 0.052000   1.357200  
-90.000000 -0.067000  1.358700  
-85.000000 -0.184000  1.345600  
-80.000000 -0.299000  1.318100  
-75.000000 -0.409000  1.276500  
-70.000000 -0.512000  1.221200  
-65.000000 -0.606000  1.153200  
-60.000000 -0.689000  1.073100  
-55.000000 -0.759000  0.982200  
-50.000000 -0.814000  0.882000  
-45.000000 -0.850000  0.774200  
-40.000000 -0.866000  0.661000  
-35.000000 -0.860000  0.545100  
-30.000000 -0.829000  0.429500  
-25.000000 -0.853000  0.307100  
-24.000000 -0.870000  0.281400  
-23.000000 -0.890000  0.255600  
-22.000000 -0.911000  0.229700  
-21.000000 -0.934000  0.204000  
-20.000000 -0.958000  0.178500  
-19.000000 -0.982000  0.153400  
-18.000000 -1.005000  0.128800  
-17.000000 -1.082000  0.103700  
-16.000000 -1.113000  0.078600  
-15.000000 -1.105000  0.053500  
-14.000000 -1.078000  0.028300  
-13.500000 -1.053000  0.015800  
-13.000000 -1.015000  0.015100  
-12.000000 -0.904000  0.013400  
-11.000000 -0.807000  0.012100  
-10.000000 -0.711000  0.011100  
-9.000000  -0.595000  0.009900  
-8.000000  -0.478000  0.009100  
-7.000000  -0.375000  0.008600  
-6.000000  -0.264000  0.008200  
-5.000000  -0.151000  0.007900  
-4.000000  -0.017000  0.007200  
-3.000000  0.088000   0.006400  
-2.000000  0.213000   0.005400  
-1.000000  0.328000   0.005200  
0.000000   0.442000   0.005200  
1.000000   0.556000   0.005200  
2.000000   0.670000   0.005300  
3.000000   0.784000   0.005300  
4.000000   0.898000   0.005400  
5.000000   1.011000   0.005800  
6.000000   1.103000   0.009100  
7.000000   1.181000   0.011300  
8.000000   1.257000   0.012400  
8.500000   1.293000   0.013000  
9.000000   1.326000   0.013600  
9.500000   1.356000   0.014300  
10.000000  1.382000   0.015000  
10.500000  1.400000   0.026700  
11.000000  1.415000   0.038300  
11.500000  1.425000   0.049800  
12.000000  1.434000   0.061300  
12.500000  1.443000   0.072700  
13.000000  1.451000   0.084100  
13.500000  1.453000   0.095400  
14.000000  1.448000   0.106500  
14.500000  1.444000   0.117600  
15.000000  1.445000   0.128700  
15.500000  1.447000   0.139800  
16.000000  1.448000   0.150900  
16.500000  1.444000   0.161900  
17.000000  1.438000   0.172800  
17.500000  1.439000   0.183700  
18.000000  1.448000   0.194700  
18.500000  1.452000   0.205700  
19.000000  1.448000   0.216500  
19.500000  1.438000   0.227200  
20.000000  1.428000   0.237900  
21.000000  1.401000   0.259000  
22.000000  1.359000   0.279900  
23.000000  1.300000   0.300400  
24.000000  1.220000   0.320400  
25.000000  1.168000   0.337700  
26.000000  1.116000   0.355400  
28.000000  1.015000   0.391600  
30.000000  0.926000   0.429400  
32.000000  0.855000   0.469000  
35.000000  0.800000   0.532400  
40.000000  0.804000   0.645200  
45.000000  0.793000   0.757300  
50.000000  0.763000   0.866400  
55.000000  0.717000   0.970800  
60.000000  0.656000   1.069300  
65.000000  0.582000   1.160600  
70.000000  0.495000   1.243800  
75.000000  0.398000   1.317800  
80.000000  0.291000   1.380900  
85.000000  0.176000   1.430400  
90.000000  0.053000   1.456500  
95.000000  -0.074000  1.453300  
100.000000 -0.199000  1.434500  
105.000000 -0.321000  1.400400  
110.000000 -0.436000  1.351200  
115.000000 -0.543000  1.287400  
120.000000 -0.640000  1.209900  
125.000000 -0.723000  1.119600  
130.000000 -0.790000  1.017900  
135.000000 -0.840000  0.906400  
140.000000 -0.868000  0.787100  
145.000000 -0.872000  0.662700  
150.000000 -0.850000  0.536300  
155.000000 -0.798000  0.411600  
160.000000 -0.714000  0.293100  
170.000000 -0.749000  0.097100  
175.000000 -0.374000  0.033400  
180.000000 0.000000   0.019800  
