AeroDyn airfoil file.
auto generated by airfoil.py (part of rotor TEAM)
1          Number of airfoil tables in this file   
0          Table ID parameter                      
9.000000   Stall angle (deg)                       
0.000000   No longer used, enter zero              
0.000000   No longer used, enter zero              
0.000000   No longer used, enter zero              
-1.343000  Angle of attack for zero Cn for linear Cn curve (deg)
7.488800   Cn slope for zero lift for linear Cn curve (1/rad)
1.351900   Cn at stall value for positive angle of attack for linear Cn curve
-0.322600  Cn at stall value for negative angle of attack for linear Cn curve
0.000000   Angle of attack for minimum CD (deg)    
0.011300   Minimum CD value                        
-180.000000 0.000000   0.060200  
-175.000000 0.218000   0.069900  
-170.000000 0.397000   0.110700  
-160.000000 0.642000   0.304500  
-155.000000 0.715000   0.417900  
-150.000000 0.757000   0.535500  
-145.000000 0.772000   0.653500  
-140.000000 0.762000   0.768500  
-135.000000 0.731000   0.877700  
-130.000000 0.680000   0.978800  
-125.000000 0.613000   1.070000  
-120.000000 0.532000   1.149900  
-115.000000 0.439000   1.217400  
-110.000000 0.337000   1.271600  
-105.000000 0.228000   1.311800  
-100.000000 0.114000   1.337800  
-95.000000 -0.002000  1.349200  
-90.000000 -0.120000  1.346000  
-85.000000 -0.236000  1.328300  
-80.000000 -0.349000  1.296400  
-75.000000 -0.456000  1.250700  
-70.000000 -0.557000  1.191800  
-65.000000 -0.647000  1.120400  
-60.000000 -0.727000  1.037600  
-55.000000 -0.792000  0.944600  
-50.000000 -0.842000  0.842900  
-45.000000 -0.874000  0.734500  
-40.000000 -0.886000  0.621500  
-35.000000 -0.875000  0.506700  
-30.000000 -0.839000  0.393200  
-25.000000 -0.777000  0.284900  
-24.000000 -0.761000  0.264200  
-23.000000 -0.744000  0.244000  
-22.000000 -0.725000  0.224200  
-21.000000 -0.706000  0.204900  
-20.000000 -0.685000  0.186100  
-19.000000 -0.662000  0.168700  
-18.000000 -0.635000  0.153300  
-17.000000 -0.605000  0.139800  
-16.000000 -0.571000  0.128100  
-15.000000 -0.534000  0.118300  
-14.000000 -0.494000  0.110100  
-13.000000 -0.452000  0.103600  
-12.000000 -0.407000  0.098600  
-11.000000 -0.360000  0.095100  
-10.000000 -0.311000  0.093100  
-8.000000  -0.208000  0.093000  
-6.000000  -0.111000  0.068900  
-5.500000  -0.090000  0.061400  
-5.000000  -0.072000  0.054700  
-4.500000  -0.065000  0.048000  
-4.000000  -0.054000  0.041100  
-3.500000  -0.017000  0.034900  
-3.000000  0.003000   0.029900  
-2.500000  0.014000   0.025500  
-2.000000  0.009000   0.019800  
-1.500000  0.004000   0.016400  
-1.000000  0.036000   0.014700  
-0.500000  0.073000   0.013700  
0.000000   0.137000   0.011300  
0.500000   0.213000   0.011400  
1.000000   0.292000   0.011800  
1.500000   0.369000   0.012200  
2.000000   0.444000   0.012400  
2.500000   0.514000   0.012400  
3.000000   0.580000   0.012300  
3.500000   0.645000   0.012000  
4.000000   0.710000   0.011900  
4.500000   0.776000   0.012200  
5.000000   0.841000   0.012500  
5.500000   0.904000   0.012900  
6.000000   0.967000   0.013500  
6.500000   1.027000   0.014400  
7.000000   1.084000   0.015800  
7.500000   1.140000   0.017400  
8.000000   1.193000   0.019800  
8.500000   1.242000   0.023100  
9.000000   1.287000   0.027500  
9.500000   1.333000   0.032300  
10.000000  1.368000   0.039300  
10.500000  1.400000   0.047500  
11.000000  1.425000   0.058000  
11.500000  1.449000   0.069100  
12.000000  1.473000   0.081600  
12.500000  1.494000   0.097300  
13.000000  1.513000   0.112900  
13.500000  1.538000   0.128800  
14.500000  1.587000   0.165000  
15.000000  1.614000   0.184500  
15.500000  1.631000   0.205200  
16.000000  1.649000   0.225000  
16.500000  1.666000   0.246700  
17.000000  1.681000   0.268400  
17.500000  1.699000   0.290000  
18.000000  1.719000   0.312100  
19.000000  1.751000   0.355400  
19.500000  1.767000   0.378300  
20.500000  1.798000   0.421200  
21.000000  1.810000   0.441500  
22.000000  1.830000   0.483000  
23.000000  1.847000   0.525700  
24.000000  1.861000   0.569400  
25.000000  1.872000   0.614100  
26.000000  1.881000   0.659300  
28.000000  1.894000   0.751300  
30.000000  1.904000   0.844100  
32.000000  1.915000   0.936400  
35.000000  1.929000   1.072200  
40.000000  1.903000   1.287300  
45.000000  1.820000   1.479600  
50.000000  1.690000   1.640100  
55.000000  1.522000   1.760900  
60.000000  1.323000   1.836000  
65.000000  1.106000   1.861400  
70.000000  0.880000   1.834700  
75.000000  0.658000   1.756700  
80.000000  0.449000   1.633400  
85.000000  0.267000   1.484700  
90.000000  0.124000   1.387900  
95.000000  0.002000   1.391200  
100.000000 -0.118000  1.379500  
105.000000 -0.235000  1.352800  
110.000000 -0.348000  1.311400  
115.000000 -0.453000  1.255700  
120.000000 -0.549000  1.186400  
125.000000 -0.633000  1.104100  
130.000000 -0.702000  1.010200  
135.000000 -0.754000  0.906000  
140.000000 -0.787000  0.793500  
145.000000 -0.797000  0.675000  
150.000000 -0.782000  0.553200  
155.000000 -0.739000  0.431800  
160.000000 -0.664000  0.314700  
170.000000 -0.410000  0.114400  
175.000000 -0.226000  0.070200  
180.000000 0.000000   0.060200  
