AeroDyn airfoil file.
auto generated by airfoil.py (part of rotor TEAM)
1          Number of airfoil tables in this file   
0          Table ID parameter                      
11.500000  Stall angle (deg)                       
0.000000   No longer used, enter zero              
0.000000   No longer used, enter zero              
0.000000   No longer used, enter zero              
-1.833000  Angle of attack for zero Cn for linear Cn curve (deg)
7.183800   Cn slope for zero lift for linear Cn curve (1/rad)
1.671700   Cn at stall value for positive angle of attack for linear Cn curve
-0.307500  Cn at stall value for negative angle of attack for linear Cn curve
0.000000   Angle of attack for minimum CD (deg)    
0.009400   Minimum CD value                        
-180.000000 0.000000   0.040700  
-175.000000 0.223000   0.050700  
-170.000000 0.405000   0.105500  
-160.000000 0.658000   0.298200  
-155.000000 0.733000   0.412100  
-150.000000 0.778000   0.530800  
-145.000000 0.795000   0.650300  
-140.000000 0.787000   0.767200  
-135.000000 0.757000   0.878500  
-130.000000 0.708000   0.981900  
-125.000000 0.641000   1.075600  
-120.000000 0.560000   1.158000  
-115.000000 0.467000   1.228000  
-110.000000 0.365000   1.284700  
-105.000000 0.255000   1.327400  
-100.000000 0.139000   1.355700  
-95.000000 0.021000   1.369200  
-90.000000 -0.098000  1.368000  
-85.000000 -0.216000  1.352100  
-80.000000 -0.331000  1.321800  
-75.000000 -0.441000  1.277300  
-70.000000 -0.544000  1.219300  
-65.000000 -0.638000  1.148600  
-60.000000 -0.720000  1.066000  
-55.000000 -0.788000  0.972800  
-50.000000 -0.840000  0.870500  
-45.000000 -0.875000  0.761100  
-40.000000 -0.889000  0.646600  
-35.000000 -0.880000  0.529900  
-30.000000 -0.846000  0.414100  
-25.000000 -0.784000  0.303000  
-24.000000 -0.768000  0.281700  
-23.000000 -0.751000  0.260800  
-22.000000 -0.733000  0.240400  
-21.000000 -0.714000  0.220500  
-20.000000 -0.693000  0.201100  
-19.000000 -0.671000  0.182200  
-18.000000 -0.648000  0.164000  
-17.000000 -0.624000  0.146500  
-16.000000 -0.601000  0.130000  
-15.000000 -0.579000  0.114500  
-14.000000 -0.559000  0.100000  
-13.000000 -0.539000  0.086700  
-12.000000 -0.519000  0.074400  
-11.000000 -0.499000  0.063300  
-10.000000 -0.480000  0.053400  
-5.540000  -0.385000  0.024500  
-5.040000  -0.359000  0.022500  
-4.540000  -0.360000  0.019600  
-4.040000  -0.355000  0.017400  
-3.540000  -0.307000  0.016200  
-3.040000  -0.246000  0.014400  
-3.000000  -0.240000  0.024000  
-2.500000  -0.163000  0.018800  
-2.000000  -0.091000  0.016000  
-1.500000  -0.019000  0.013700  
-1.000000  0.052000   0.011800  
-0.500000  0.121000   0.010400  
0.000000   0.196000   0.009400  
0.500000   0.265000   0.009600  
1.000000   0.335000   0.009800  
1.500000   0.404000   0.009900  
2.000000   0.472000   0.010000  
2.500000   0.540000   0.010200  
3.000000   0.608000   0.010300  
3.500000   0.674000   0.010400  
4.000000   0.742000   0.010500  
4.500000   0.809000   0.010700  
5.000000   0.875000   0.010800  
5.500000   0.941000   0.010900  
6.000000   1.007000   0.011000  
6.500000   1.071000   0.011300  
7.000000   1.134000   0.011500  
7.500000   1.198000   0.011700  
8.000000   1.260000   0.012000  
8.500000   1.318000   0.012600  
9.000000   1.368000   0.013300  
9.500000   1.422000   0.014300  
10.000000  1.475000   0.015600  
10.500000  1.523000   0.017400  
11.000000  1.570000   0.019400  
11.500000  1.609000   0.022700  
12.000000  1.642000   0.026900  
12.500000  1.675000   0.031900  
13.000000  1.700000   0.039800  
13.500000  1.717000   0.048800  
14.000000  1.712000   0.061400  
14.500000  1.703000   0.078600  
15.500000  1.671000   0.117300  
16.000000  1.649000   0.137700  
16.500000  1.621000   0.160000  
17.000000  1.598000   0.181400  
17.500000  1.571000   0.204200  
18.000000  1.549000   0.231600  
19.000000  1.544000   0.271900  
19.500000  1.549000   0.290600  
20.000000  1.565000   0.308500  
21.000000  1.565000   0.344700  
22.000000  1.563000   0.382000  
23.000000  1.558000   0.420300  
24.000000  1.552000   0.459300  
25.000000  1.546000   0.498800  
26.000000  1.539000   0.538700  
28.000000  1.527000   0.618700  
30.000000  1.522000   0.697800  
32.000000  1.529000   0.774700  
35.000000  1.544000   0.886900  
40.000000  1.529000   1.067100  
45.000000  1.471000   1.231900  
50.000000  1.376000   1.374700  
55.000000  1.249000   1.489900  
60.000000  1.097000   1.572800  
65.000000  0.928000   1.620200  
70.000000  0.750000   1.630200  
75.000000  0.570000   1.603100  
80.000000  0.396000   1.542300  
85.000000  0.237000   1.459800  
90.000000  0.101000   1.404100  
95.000000  -0.022000  1.405300  
100.000000 -0.143000  1.391400  
105.000000 -0.261000  1.362500  
110.000000 -0.374000  1.318800  
115.000000 -0.480000  1.260800  
120.000000 -0.575000  1.189100  
125.000000 -0.659000  1.104600  
130.000000 -0.727000  1.008600  
135.000000 -0.778000  0.902500  
140.000000 -0.809000  0.788300  
145.000000 -0.818000  0.668400  
150.000000 -0.800000  0.545700  
155.000000 -0.754000  0.423600  
160.000000 -0.677000  0.306600  
170.000000 -0.417000  0.108500  
175.000000 -0.229000  0.051000  
180.000000 0.000000   0.040700  
