AeroDyn airfoil file.
auto generated by airfoil.py (part of rotor TEAM)
1          Number of airfoil tables in this file   
0          Table ID parameter                      
8.500000   Stall angle (deg)                       
0.000000   No longer used, enter zero              
0.000000   No longer used, enter zero              
0.000000   No longer used, enter zero              
-4.242200  Angle of attack for zero Cn for linear Cn curve (deg)
6.446200   Cn slope for zero lift for linear Cn curve (1/rad)
1.433600   Cn at stall value for positive angle of attack for linear Cn curve
-0.687300  Cn at stall value for negative angle of attack for linear Cn curve
0.000000   Angle of attack for minimum CD (deg)    
0.006500   Minimum CD value                        
-180.000000 0.000000   0.020200  
-175.000000 0.368000   0.032400  
-170.000000 0.735000   0.094300  
-160.000000 0.695000   0.284800  
-155.000000 0.777000   0.400100  
-150.000000 0.828000   0.521500  
-145.000000 0.850000   0.644700  
-140.000000 0.846000   0.766000  
-135.000000 0.818000   0.882300  
-130.000000 0.771000   0.991100  
-125.000000 0.705000   1.090500  
-120.000000 0.624000   1.178700  
-115.000000 0.530000   1.254500  
-110.000000 0.426000   1.316800  
-105.000000 0.314000   1.365000  
-100.000000 0.195000   1.398400  
-95.000000 0.073000   1.416900  
-90.000000 -0.050000  1.420100  
-85.000000 -0.173000  1.408100  
-80.000000 -0.294000  1.381100  
-75.000000 -0.409000  1.339400  
-70.000000 -0.518000  1.283300  
-65.000000 -0.617000  1.213800  
-60.000000 -0.706000  1.131500  
-55.000000 -0.780000  1.037800  
-50.000000 -0.839000  0.934100  
-45.000000 -0.879000  0.822100  
-40.000000 -0.898000  0.704200  
-35.000000 -0.893000  0.582900  
-30.000000 -0.862000  0.461600  
-25.000000 -0.803000  0.344100  
-24.000000 -0.792000  0.320900  
-23.000000 -0.789000  0.297200  
-22.000000 -0.792000  0.273000  
-21.000000 -0.801000  0.248500  
-20.000000 -0.815000  0.223700  
-19.000000 -0.833000  0.199000  
-18.000000 -0.854000  0.174300  
-17.000000 -0.879000  0.149800  
-16.000000 -0.905000  0.125600  
-15.000000 -0.932000  0.102000  
-14.000000 -0.959000  0.078900  
-13.000000 -0.985000  0.056700  
-13.000000 -0.985000  0.056700  
-12.010000 -0.953000  0.027100  
-11.000000 -0.900000  0.030300  
-9.980000  -0.827000  0.028700  
-8.980000  -0.753000  0.027100  
-8.470000  -0.691000  0.026400  
-7.450000  -0.555000  0.011400  
-6.420000  -0.413000  0.009400  
-5.400000  -0.271000  0.008600  
-5.000000  -0.220000  0.007300  
-4.500000  -0.152000  0.007100  
-4.000000  -0.084000  0.007000  
-3.500000  -0.018000  0.006900  
-3.000000  0.049000   0.006800  
-2.500000  0.115000   0.006800  
-2.000000  0.181000   0.006800  
-1.500000  0.247000   0.006700  
-1.000000  0.312000   0.006700  
-0.500000  0.377000   0.006700  
0.000000   0.444000   0.006500  
0.500000   0.508000   0.006500  
1.000000   0.573000   0.006600  
1.500000   0.636000   0.006700  
2.000000   0.701000   0.006800  
2.500000   0.765000   0.006900  
3.000000   0.827000   0.007000  
3.500000   0.890000   0.007100  
4.000000   0.952000   0.007300  
4.500000   1.013000   0.007600  
5.000000   1.062000   0.007900  
6.000000   1.161000   0.009900  
6.500000   1.208000   0.011700  
7.000000   1.254000   0.013200  
7.500000   1.301000   0.014300  
8.000000   1.336000   0.015300  
8.500000   1.369000   0.016500  
9.000000   1.400000   0.018100  
9.500000   1.428000   0.021100  
10.000000  1.442000   0.026200  
10.500000  1.427000   0.033600  
11.000000  1.374000   0.042000  
11.500000  1.316000   0.051500  
12.000000  1.277000   0.060100  
12.500000  1.250000   0.069300  
13.000000  1.246000   0.078500  
13.500000  1.247000   0.088800  
14.000000  1.256000   0.100000  
14.500000  1.260000   0.110800  
15.000000  1.271000   0.121900  
15.500000  1.281000   0.132500  
16.000000  1.289000   0.143300  
16.500000  1.294000   0.154100  
17.000000  1.304000   0.164900  
17.500000  1.309000   0.175400  
18.000000  1.315000   0.184500  
18.500000  1.320000   0.195300  
19.000000  1.330000   0.206100  
19.500000  1.343000   0.217000  
20.000000  1.354000   0.228000  
20.500000  1.359000   0.239000  
21.000000  1.360000   0.253600  
22.000000  1.325000   0.281400  
23.000000  1.288000   0.309800  
24.000000  1.251000   0.338600  
25.000000  1.215000   0.367800  
26.000000  1.181000   0.397200  
28.000000  1.120000   0.456300  
30.000000  1.076000   0.514900  
32.000000  1.056000   0.572000  
35.000000  1.066000   0.654800  
40.000000  1.064000   0.790100  
45.000000  1.035000   0.919000  
50.000000  0.980000   1.037800  
55.000000  0.904000   1.143400  
60.000000  0.810000   1.233300  
65.000000  0.702000   1.305500  
70.000000  0.582000   1.358700  
75.000000  0.456000   1.392200  
80.000000  0.326000   1.406300  
85.000000  0.197000   1.404200  
90.000000  0.072000   1.398500  
95.000000  -0.050000  1.397300  
100.000000 -0.170000  1.381000  
105.000000 -0.287000  1.349800  
110.000000 -0.399000  1.304100  
115.000000 -0.502000  1.244200  
120.000000 -0.596000  1.170900  
125.000000 -0.677000  1.085200  
130.000000 -0.743000  0.988300  
135.000000 -0.792000  0.881800  
140.000000 -0.821000  0.767600  
145.000000 -0.826000  0.648100  
150.000000 -0.806000  0.526400  
155.000000 -0.758000  0.406000  
160.000000 -0.679000  0.291200  
170.000000 -0.735000  0.099500  
175.000000 -0.368000  0.035600  
180.000000 0.000000   0.020200  
