AeroDyn airfoil file.
auto generated by airfoil.py (part of rotor TEAM)
1          Number of airfoil tables in this file   
0          Table ID parameter                      
8.000000   Stall angle (deg)                       
0.000000   No longer used, enter zero              
0.000000   No longer used, enter zero              
0.000000   No longer used, enter zero              
-5.060900  Angle of attack for zero Cn for linear Cn curve (deg)
6.204700   Cn slope for zero lift for linear Cn curve (1/rad)
1.414400   Cn at stall value for positive angle of attack for linear Cn curve
-0.532400  Cn at stall value for negative angle of attack for linear Cn curve
-1.500000  Angle of attack for minimum CD (deg)    
0.005700   Minimum CD value                        
-180.000000 0.000000   0.018500  
-175.000000 0.394000   0.033200  
-170.000000 0.788000   0.094500  
-160.000000 0.670000   0.280900  
-155.000000 0.749000   0.393200  
-150.000000 0.797000   0.511200  
-145.000000 0.818000   0.630900  
-140.000000 0.813000   0.748500  
-135.000000 0.786000   0.861200  
-130.000000 0.739000   0.966500  
-125.000000 0.675000   1.062500  
-120.000000 0.596000   1.147600  
-115.000000 0.505000   1.220600  
-110.000000 0.403000   1.280500  
-105.000000 0.294000   1.326500  
-100.000000 0.179000   1.358200  
-95.000000 0.060000   1.375200  
-90.000000 -0.060000  1.377400  
-85.000000 -0.179000  1.364800  
-80.000000 -0.295000  1.337600  
-75.000000 -0.407000  1.296200  
-70.000000 -0.512000  1.240900  
-65.000000 -0.608000  1.172500  
-60.000000 -0.693000  1.091900  
-55.000000 -0.764000  1.000200  
-50.000000 -0.820000  0.899000  
-45.000000 -0.857000  0.790000  
-40.000000 -0.875000  0.675400  
-35.000000 -0.869000  0.557900  
-30.000000 -0.838000  0.440500  
-25.000000 -0.791000  0.325600  
-24.000000 -0.794000  0.301300  
-23.000000 -0.805000  0.276200  
-22.000000 -0.821000  0.250600  
-21.000000 -0.843000  0.224600  
-20.000000 -0.869000  0.198300  
-19.000000 -0.899000  0.172000  
-18.000000 -0.931000  0.145700  
-17.000000 -0.964000  0.119700  
-16.000000 -0.999000  0.094000  
-15.000000 -1.033000  0.068900  
-14.500000 -1.050000  0.056700  
-12.010000 -0.953000  0.027100  
-11.000000 -0.900000  0.030300  
-9.980000  -0.827000  0.028700  
-8.120000  -0.536000  0.012400  
-7.620000  -0.467000  0.010900  
-7.110000  -0.393000  0.009200  
-6.600000  -0.323000  0.008300  
-6.500000  -0.311000  0.008900  
-6.000000  -0.245000  0.008200  
-5.500000  -0.178000  0.007400  
-5.000000  -0.113000  0.006900  
-4.500000  -0.048000  0.006500  
-4.000000  0.016000   0.006300  
-3.500000  0.080000   0.006100  
-3.000000  0.145000   0.005800  
-2.500000  0.208000   0.005700  
-2.000000  0.270000   0.005700  
-1.500000  0.333000   0.005700  
-1.000000  0.396000   0.005700  
-0.500000  0.458000   0.005700  
0.000000   0.521000   0.005700  
0.500000   0.583000   0.005700  
1.000000   0.645000   0.005800  
1.500000   0.706000   0.005800  
2.000000   0.768000   0.005900  
2.500000   0.828000   0.006100  
3.000000   0.888000   0.006300  
3.500000   0.948000   0.006600  
4.000000   0.996000   0.007100  
4.500000   1.046000   0.007900  
5.000000   1.095000   0.009000  
5.500000   1.145000   0.010300  
6.000000   1.192000   0.011300  
6.500000   1.239000   0.012200  
7.000000   1.283000   0.013100  
7.500000   1.324000   0.013900  
8.000000   1.358000   0.014700  
8.500000   1.385000   0.015800  
9.000000   1.403000   0.018100  
9.500000   1.401000   0.021100  
10.000000  1.358000   0.025500  
10.500000  1.313000   0.030100  
11.000000  1.287000   0.034700  
11.500000  1.274000   0.040100  
12.000000  1.272000   0.046800  
12.500000  1.273000   0.054500  
13.000000  1.273000   0.063300  
13.500000  1.273000   0.072200  
14.000000  1.272000   0.080600  
14.500000  1.273000   0.090000  
15.000000  1.275000   0.098700  
15.500000  1.281000   0.107500  
16.000000  1.284000   0.117000  
16.500000  1.296000   0.127000  
17.000000  1.306000   0.136800  
17.500000  1.308000   0.146400  
18.000000  1.308000   0.156200  
18.500000  1.308000   0.166400  
19.000000  1.308000   0.177000  
19.500000  1.307000   0.187800  
20.000000  1.311000   0.198700  
20.500000  1.325000   0.210000  
21.000000  1.324000   0.221400  
22.000000  1.277000   0.249900  
23.000000  1.229000   0.278600  
24.000000  1.182000   0.307700  
25.000000  1.136000   0.337100  
26.000000  1.093000   0.366400  
28.000000  1.017000   0.424600  
30.000000  0.962000   0.481300  
32.000000  0.937000   0.535600  
35.000000  0.947000   0.612700  
40.000000  0.950000   0.739600  
45.000000  0.928000   0.862300  
50.000000  0.884000   0.978100  
55.000000  0.821000   1.084600  
60.000000  0.740000   1.179600  
65.000000  0.646000   1.261700  
70.000000  0.540000   1.329700  
75.000000  0.425000   1.382700  
80.000000  0.304000   1.420200  
85.000000  0.179000   1.442300  
90.000000  0.053000   1.451200  
95.000000  -0.073000  1.448000  
100.000000 -0.198000  1.429400  
105.000000 -0.319000  1.395400  
110.000000 -0.434000  1.346400  
115.000000 -0.541000  1.282900  
120.000000 -0.637000  1.205700  
125.000000 -0.720000  1.115700  
130.000000 -0.787000  1.014400  
135.000000 -0.836000  0.903300  
140.000000 -0.864000  0.784500  
145.000000 -0.869000  0.660500  
150.000000 -0.847000  0.534600  
155.000000 -0.795000  0.410300  
160.000000 -0.711000  0.292200  
170.000000 -0.788000  0.096900  
175.000000 -0.394000  0.033400  
180.000000 0.000000   0.018500  
