AeroDyn airfoil file.  Compatible with AeroDyn v13.0.
This file was generated automatically by HARP_Opt.
This data represents a 74.1 percent thick airfoil, and was interpolated between the airfoil data in the files NREL5MW_1000.dat and NREL5MW_0400.dat.
  1           Number of airfoil tables in this file
 1.000         Table ID parameter (Reynolds number in millions)
 3.885         Stall angle (deg)
  0           Zero lift angle of attack (deg)
  0           Cn slope for zero lift (dimensionless)
  0           Cn at stall value for positive angle of attack
  0           Cn at stall value for negative angle of attack
  0           Angle of attack for minimum CD (deg)
  0           Minimum CD value
-180.000    0.0000    0.3102    0.0000
-175.000    0.0941    0.3143    0.0403
-170.000    0.1714    0.3320    0.0733
-160.000    0.2771    0.4156    0.1214
-155.000    0.3086    0.4646    0.1385
-150.000    0.3268    0.5153    0.1518
-145.000    0.3332    0.5663    0.1620
-140.000    0.3289    0.6159    0.1695
-135.000    0.3155    0.6630    0.1747
-130.000    0.2935    0.7067    0.1781
-125.000    0.2646    0.7460    0.1798
-120.000    0.2296    0.7805    0.1803
-115.000    0.1895    0.8097    0.1795
-110.000    0.1455    0.8331    0.1777
-105.000    0.0984    0.8504    0.1751
-100.000    0.0492    0.8617    0.1718
-95.000    -0.0009    0.8666    0.1678
-90.000    -0.0518    0.8652    0.1632
-85.000    -0.1019    0.8575    0.1581
-80.000    -0.1507    0.8438    0.1526
-75.000    -0.1968    0.8241    0.1465
-70.000    -0.2404    0.7986    0.1400
-65.000    -0.2793    0.7678    0.1331
-60.000    -0.3138    0.7321    0.1258
-55.000    -0.3419    0.6919    0.1180
-50.000    -0.3635    0.6480    0.1098
-45.000    -0.3773    0.6012    0.1011
-40.000    -0.3825    0.5524    0.0919
-35.000    -0.3777    0.5029    0.0823
-30.000    -0.3622    0.4539    0.0721
-25.000    -0.3354    0.4071    0.0614
-24.000    -0.3285    0.3982    0.0592
-23.000    -0.3212    0.3895    0.0570
-22.000    -0.3130    0.3809    0.0547
-21.000    -0.3048    0.3726    0.0524
-20.000    -0.2957    0.3645    0.0502
-19.000    -0.2858    0.3570    0.0474
-18.000    -0.2741    0.3503    0.0437
-17.000    -0.2612    0.3445    0.0392
-16.000    -0.2465    0.3395    0.0338
-15.000    -0.2305    0.3352    0.0279
-14.000    -0.2132    0.3317    0.0213
-13.000    -0.1951    0.3289    0.0142
-12.000    -0.1757    0.3267    0.0067
-11.000    -0.1554    0.3252    -0.0011
-10.000    -0.1342    0.3244    -0.0092
-8.000    -0.0898    0.3243    -0.0259
-6.000    -0.0479    0.3139    -0.0216
-5.500    -0.0388    0.3107    -0.0223
-5.000    -0.0311    0.3078    -0.0230
-4.500    -0.0281    0.3049    -0.0232
-4.000    -0.0233    0.3019    -0.0235
-3.500    -0.0073    0.2992    -0.0239
-3.000    0.0013    0.2971    -0.0241
-2.500    0.0060    0.2952    -0.0240
-2.000    0.0039    0.2927    -0.0231
-1.500    0.0017    0.2912    -0.0191
-1.000    0.0155    0.2905    -0.0202
-0.500    0.0315    0.2901    -0.0225
0.000    0.0591    0.2890    -0.0247
0.500    0.0919    0.2891    -0.0278
1.000    0.1260    0.2893    -0.0310
1.500    0.1593    0.2894    -0.0338
2.000    0.1917    0.2895    -0.0360
2.500    0.2219    0.2895    -0.0374
3.000    0.2504    0.2895    -0.0383
3.500    0.2784    0.2893    -0.0388
4.000    0.3065    0.2893    -0.0395
4.500    0.3350    0.2894    -0.0403
5.000    0.3630    0.2896    -0.0409
5.500    0.3902    0.2897    -0.0413
6.000    0.4174    0.2900    -0.0417
6.500    0.4433    0.2904    -0.0420
7.000    0.4679    0.2910    -0.0420
7.500    0.4921    0.2917    -0.0420
8.000    0.5150    0.2927    -0.0418
8.500    0.5361    0.2941    -0.0414
9.000    0.5556    0.2960    -0.0409
9.500    0.5754    0.2981    -0.0407
10.000    0.5905    0.3011    -0.0400
10.500    0.6043    0.3047    -0.0392
11.000    0.6151    0.3092    -0.0384
11.500    0.6255    0.3140    -0.0379
12.000    0.6358    0.3194    -0.0376
12.500    0.6449    0.3262    -0.0376
13.000    0.6531    0.3329    -0.0378
13.500    0.6639    0.3398    -0.0382
14.500    0.6851    0.3554    -0.0396
15.000    0.6967    0.3638    -0.0405
15.500    0.7040    0.3727    -0.0417
16.000    0.7118    0.3813    -0.0430
16.500    0.7192    0.3907    -0.0445
17.000    0.7256    0.4000    -0.0461
17.500    0.7334    0.4093    -0.0479
18.000    0.7420    0.4189    -0.0499
19.000    0.7558    0.4376    -0.0536
19.500    0.7628    0.4475    -0.0557
20.500    0.7761    0.4660    -0.0597
21.000    0.7813    0.4747    -0.0611
22.000    0.7899    0.4927    -0.0638
23.000    0.7973    0.5111    -0.0666
24.000    0.8033    0.5300    -0.0692
25.000    0.8081    0.5493    -0.0718
26.000    0.8120    0.5688    -0.0744
28.000    0.8176    0.6085    -0.0795
30.000    0.8219    0.6485    -0.0843
32.000    0.8266    0.6884    -0.0891
35.000    0.8327    0.7470    -0.0958
40.000    0.8215    0.8399    -0.1065
45.000    0.7856    0.9229    -0.1166
50.000    0.7295    0.9921    -0.1261
55.000    0.6570    1.0443    -0.1350
60.000    0.5711    1.0767    -0.1434
65.000    0.4774    1.0877    -0.1512
70.000    0.3799    1.0761    -0.1585
75.000    0.2840    1.0425    -0.1653
80.000    0.1938    0.9893    -0.1717
85.000    0.1153    0.9251    -0.1775
90.000    0.0535    0.8833    -0.1828
95.000    0.0009    0.8847    -0.1875
100.000    -0.0509    0.8797    -0.1915
105.000    -0.1014    0.8681    -0.1949
110.000    -0.1502    0.8503    -0.1974
115.000    -0.1955    0.8262    -0.1990
120.000    -0.2370    0.7963    -0.1996
125.000    -0.2732    0.7608    -0.1988
130.000    -0.3030    0.7202    -0.1966
135.000    -0.3255    0.6753    -0.1926
140.000    -0.3397    0.6267    -0.1866
145.000    -0.3440    0.5755    -0.1781
150.000    -0.3376    0.5230    -0.1668
155.000    -0.3190    0.4706    -0.1520
160.000    -0.2866    0.4200    -0.1332
170.000    -0.1770    0.3335    -0.0802
175.000    -0.0976    0.3145    -0.0441
180.000    0.0000    0.3102    0.0000
EOT 1
