AeroDyn airfoil file.  Compatible with AeroDyn v13.0.
This file was generated automatically by HARP_Opt.
This data represents a 80 percent thick airfoil, and was interpolated between the airfoil data in the files NREL5MW_1000.dat and NREL5MW_0400.dat.
  1           Number of airfoil tables in this file
 1.000         Table ID parameter (Reynolds number in millions)
 3.000         Stall angle (deg)
  0           Zero lift angle of attack (deg)
  0           Cn slope for zero lift (dimensionless)
  0           Cn at stall value for positive angle of attack
  0           Cn at stall value for negative angle of attack
  0           Angle of attack for minimum CD (deg)
  0           Minimum CD value
-180.000    0.0000    0.3534    0.0000
-175.000    0.0727    0.3566    0.0311
-170.000    0.1323    0.3702    0.0566
-160.000    0.2140    0.4348    0.0938
-155.000    0.2383    0.4726    0.1069
-150.000    0.2523    0.5118    0.1172
-145.000    0.2573    0.5512    0.1251
-140.000    0.2540    0.5895    0.1309
-135.000    0.2437    0.6259    0.1349
-130.000    0.2267    0.6596    0.1375
-125.000    0.2043    0.6900    0.1389
-120.000    0.1773    0.7166    0.1392
-115.000    0.1463    0.7391    0.1386
-110.000    0.1123    0.7572    0.1372
-105.000    0.0760    0.7706    0.1352
-100.000    0.0380    0.7793    0.1326
-95.000    -0.0007    0.7831    0.1296
-90.000    -0.0400    0.7820    0.1260
-85.000    -0.0787    0.7761    0.1221
-80.000    -0.1163    0.7655    0.1178
-75.000    -0.1520    0.7502    0.1131
-70.000    -0.1857    0.7306    0.1081
-65.000    -0.2157    0.7068    0.1028
-60.000    -0.2423    0.6792    0.0971
-55.000    -0.2640    0.6482    0.0911
-50.000    -0.2807    0.6143    0.0848
-45.000    -0.2913    0.5782    0.0781
-40.000    -0.2953    0.5405    0.0710
-35.000    -0.2917    0.5022    0.0635
-30.000    -0.2797    0.4644    0.0557
-25.000    -0.2590    0.4283    0.0474
-24.000    -0.2537    0.4214    0.0457
-23.000    -0.2480    0.4147    0.0440
-22.000    -0.2417    0.4081    0.0423
-21.000    -0.2353    0.4016    0.0405
-20.000    -0.2283    0.3954    0.0387
-19.000    -0.2207    0.3896    0.0366
-18.000    -0.2117    0.3844    0.0337
-17.000    -0.2017    0.3799    0.0302
-16.000    -0.1903    0.3760    0.0261
-15.000    -0.1780    0.3728    0.0215
-14.000    -0.1647    0.3700    0.0165
-13.000    -0.1507    0.3679    0.0110
-12.000    -0.1357    0.3662    0.0052
-11.000    -0.1200    0.3650    -0.0009
-10.000    -0.1037    0.3644    -0.0071
-8.000    -0.0693    0.3643    -0.0200
-6.000    -0.0370    0.3563    -0.0167
-5.500    -0.0300    0.3538    -0.0172
-5.000    -0.0240    0.3516    -0.0177
-4.500    -0.0217    0.3493    -0.0179
-4.000    -0.0180    0.3470    -0.0181
-3.500    -0.0057    0.3450    -0.0185
-3.000    0.0010    0.3433    -0.0186
-2.500    0.0047    0.3418    -0.0185
-2.000    0.0030    0.3399    -0.0178
-1.500    0.0013    0.3388    -0.0147
-1.000    0.0120    0.3382    -0.0156
-0.500    0.0243    0.3379    -0.0174
0.000    0.0457    0.3371    -0.0191
0.500    0.0710    0.3371    -0.0215
1.000    0.0973    0.3373    -0.0239
1.500    0.1230    0.3374    -0.0261
2.000    0.1480    0.3375    -0.0278
2.500    0.1713    0.3375    -0.0289
3.000    0.1933    0.3374    -0.0296
3.500    0.2150    0.3373    -0.0300
4.000    0.2367    0.3373    -0.0305
4.500    0.2587    0.3374    -0.0311
5.000    0.2803    0.3375    -0.0316
5.500    0.3013    0.3376    -0.0319
6.000    0.3223    0.3378    -0.0322
6.500    0.3423    0.3381    -0.0324
7.000    0.3613    0.3386    -0.0324
7.500    0.3800    0.3391    -0.0324
8.000    0.3977    0.3399    -0.0323
8.500    0.4140    0.3410    -0.0319
9.000    0.4290    0.3425    -0.0316
9.500    0.4443    0.3441    -0.0314
10.000    0.4560    0.3464    -0.0309
10.500    0.4667    0.3492    -0.0303
11.000    0.4750    0.3527    -0.0297
11.500    0.4830    0.3564    -0.0292
12.000    0.4910    0.3605    -0.0290
12.500    0.4980    0.3658    -0.0290
13.000    0.5043    0.3710    -0.0292
13.500    0.5127    0.3763    -0.0295
14.500    0.5290    0.3883    -0.0306
15.000    0.5380    0.3948    -0.0313
15.500    0.5437    0.4017    -0.0322
16.000    0.5497    0.4083    -0.0332
16.500    0.5553    0.4156    -0.0344
17.000    0.5603    0.4228    -0.0356
17.500    0.5663    0.4300    -0.0370
18.000    0.5730    0.4374    -0.0386
19.000    0.5837    0.4518    -0.0414
19.500    0.5890    0.4594    -0.0430
20.500    0.5993    0.4737    -0.0461
21.000    0.6033    0.4805    -0.0472
22.000    0.6100    0.4943    -0.0493
23.000    0.6157    0.5086    -0.0514
24.000    0.6203    0.5231    -0.0534
25.000    0.6240    0.5380    -0.0555
26.000    0.6270    0.5531    -0.0575
28.000    0.6313    0.5838    -0.0614
30.000    0.6347    0.6147    -0.0651
32.000    0.6383    0.6455    -0.0688
35.000    0.6430    0.6907    -0.0740
40.000    0.6343    0.7624    -0.0823
45.000    0.6067    0.8265    -0.0900
50.000    0.5633    0.8800    -0.0974
55.000    0.5073    0.9203    -0.1042
60.000    0.4410    0.9453    -0.1107
65.000    0.3687    0.9538    -0.1167
70.000    0.2933    0.9449    -0.1224
75.000    0.2193    0.9189    -0.1277
80.000    0.1497    0.8778    -0.1326
85.000    0.0890    0.8282    -0.1371
90.000    0.0413    0.7960    -0.1411
95.000    0.0007    0.7971    -0.1448
100.000    -0.0393    0.7932    -0.1479
105.000    -0.0783    0.7843    -0.1505
110.000    -0.1160    0.7705    -0.1524
115.000    -0.1510    0.7519    -0.1537
120.000    -0.1830    0.7288    -0.1541
125.000    -0.2110    0.7014    -0.1535
130.000    -0.2340    0.6701    -0.1518
135.000    -0.2513    0.6353    -0.1487
140.000    -0.2623    0.5978    -0.1441
145.000    -0.2657    0.5583    -0.1376
150.000    -0.2607    0.5177    -0.1288
155.000    -0.2463    0.4773    -0.1174
160.000    -0.2213    0.4382    -0.1028
170.000    -0.1367    0.3715    -0.0619
175.000    -0.0753    0.3567    -0.0341
180.000    0.0000    0.3534    0.0000
EOT 1
