AeroDyn airfoil file.  Compatible with AeroDyn v13.0.
This file was generated automatically by HARP_Opt.
This data represents a 43.6 percent thick airfoil, and was interpolated between the airfoil data in the files NREL5MW_1000.dat and NREL5MW_0400.dat.
  1           Number of airfoil tables in this file
 1.000         Table ID parameter (Reynolds number in millions)
 8.460         Stall angle (deg)
  0           Zero lift angle of attack (deg)
  0           Cn slope for zero lift (dimensionless)
  0           Cn at stall value for positive angle of attack
  0           Cn at stall value for negative angle of attack
  0           Angle of attack for minimum CD (deg)
  0           Minimum CD value
-180.000    0.0000    0.0866    0.0000
-175.000    0.2049    0.0957    0.0878
-170.000    0.3732    0.1341    0.1595
-160.000    0.6035    0.3162    0.2644
-155.000    0.6721    0.4228    0.3016
-150.000    0.7116    0.5334    0.3305
-145.000    0.7257    0.6443    0.3527
-140.000    0.7163    0.7524    0.3690
-135.000    0.6871    0.8550    0.3805
-130.000    0.6392    0.9501    0.3878
-125.000    0.5762    1.0358    0.3916
-120.000    0.5001    1.1109    0.3925
-115.000    0.4127    1.1744    0.3909
-110.000    0.3168    1.2253    0.3870
-105.000    0.2143    1.2631    0.3814
-100.000    0.1072    1.2875    0.3740
-95.000    -0.0019    1.2982    0.3654
-90.000    -0.1128    1.2952    0.3554
-85.000    -0.2218    1.2786    0.3443
-80.000    -0.3281    1.2486    0.3322
-75.000    -0.4286    1.2057    0.3190
-70.000    -0.5236    1.1503    0.3049
-65.000    -0.6082    1.0832    0.2899
-60.000    -0.6834    1.0053    0.2739
-55.000    -0.7445    0.9179    0.2569
-50.000    -0.7915    0.8223    0.2390
-45.000    -0.8216    0.7204    0.2201
-40.000    -0.8328    0.6142    0.2001
-35.000    -0.8225    0.5063    0.1792
-30.000    -0.7887    0.3996    0.1570
-25.000    -0.7304    0.2978    0.1337
-24.000    -0.7153    0.2783    0.1289
-23.000    -0.6994    0.2594    0.1241
-22.000    -0.6815    0.2407    0.1192
-21.000    -0.6636    0.2226    0.1142
-20.000    -0.6439    0.2049    0.1092
-19.000    -0.6223    0.1886    0.1031
-18.000    -0.5969    0.1741    0.0951
-17.000    -0.5687    0.1614    0.0853
-16.000    -0.5367    0.1504    0.0737
-15.000    -0.5020    0.1412    0.0607
-14.000    -0.4644    0.1335    0.0464
-13.000    -0.4249    0.1274    0.0310
-12.000    -0.3826    0.1227    0.0147
-11.000    -0.3384    0.1194    -0.0024
-10.000    -0.2923    0.1175    -0.0200
-8.000    -0.1955    0.1174    -0.0564
-6.000    -0.1043    0.0948    -0.0470
-5.500    -0.0846    0.0877    -0.0485
-5.000    -0.0677    0.0814    -0.0500
-4.500    -0.0611    0.0751    -0.0506
-4.000    -0.0508    0.0686    -0.0511
-3.500    -0.0160    0.0628    -0.0521
-3.000    0.0028    0.0581    -0.0525
-2.500    0.0132    0.0540    -0.0522
-2.000    0.0085    0.0486    -0.0502
-1.500    0.0038    0.0454    -0.0415
-1.000    0.0338    0.0438    -0.0441
-0.500    0.0686    0.0429    -0.0491
0.000    0.1288    0.0406    -0.0539
0.500    0.2002    0.0407    -0.0605
1.000    0.2745    0.0411    -0.0675
1.500    0.3469    0.0415    -0.0736
2.000    0.4174    0.0417    -0.0785
2.500    0.4832    0.0417    -0.0814
3.000    0.5452    0.0416    -0.0834
3.500    0.6063    0.0413    -0.0846
4.000    0.6674    0.0412    -0.0859
4.500    0.7294    0.0415    -0.0877
5.000    0.7905    0.0418    -0.0890
5.500    0.8498    0.0421    -0.0900
6.000    0.9090    0.0427    -0.0909
6.500    0.9654    0.0435    -0.0915
7.000    1.0190    0.0449    -0.0914
7.500    1.0716    0.0464    -0.0914
8.000    1.1214    0.0486    -0.0910
8.500    1.1675    0.0517    -0.0901
9.000    1.2098    0.0559    -0.0891
9.500    1.2530    0.0604    -0.0885
10.000    1.2859    0.0669    -0.0870
10.500    1.3160    0.0747    -0.0854
11.000    1.3395    0.0845    -0.0837
11.500    1.3621    0.0950    -0.0824
12.000    1.3846    0.1067    -0.0818
12.500    1.4044    0.1215    -0.0818
13.000    1.4222    0.1361    -0.0823
13.500    1.4457    0.1511    -0.0833
14.500    1.4918    0.1851    -0.0862
15.000    1.5172    0.2034    -0.0883
15.500    1.5331    0.2229    -0.0908
16.000    1.5501    0.2415    -0.0936
16.500    1.5660    0.2619    -0.0969
17.000    1.5801    0.2823    -0.1005
17.500    1.5971    0.3026    -0.1043
18.000    1.6159    0.3234    -0.1088
19.000    1.6459    0.3641    -0.1167
19.500    1.6610    0.3856    -0.1214
20.500    1.6901    0.4259    -0.1301
21.000    1.7014    0.4450    -0.1331
22.000    1.7202    0.4840    -0.1390
23.000    1.7362    0.5242    -0.1449
24.000    1.7493    0.5652    -0.1507
25.000    1.7597    0.6073    -0.1564
26.000    1.7681    0.6497    -0.1621
28.000    1.7804    0.7362    -0.1731
30.000    1.7898    0.8235    -0.1837
32.000    1.8001    0.9102    -0.1939
35.000    1.8133    1.0379    -0.2087
40.000    1.7888    1.2401    -0.2320
45.000    1.7108    1.4208    -0.2539
50.000    1.5886    1.5717    -0.2746
55.000    1.4307    1.6852    -0.2939
60.000    1.2436    1.7558    -0.3122
65.000    1.0396    1.7797    -0.3292
70.000    0.8272    1.7546    -0.3452
75.000    0.6185    1.6813    -0.3600
80.000    0.4221    1.5654    -0.3738
85.000    0.2510    1.4256    -0.3865
90.000    0.1166    1.3346    -0.3980
95.000    0.0019    1.3377    -0.4082
100.000    -0.1109    1.3267    -0.4171
105.000    -0.2209    1.3016    -0.4243
110.000    -0.3271    1.2627    -0.4299
115.000    -0.4258    1.2104    -0.4333
120.000    -0.5161    1.1452    -0.4346
125.000    -0.5950    1.0679    -0.4330
130.000    -0.6599    0.9796    -0.4281
135.000    -0.7088    0.8816    -0.4194
140.000    -0.7398    0.7759    -0.4064
145.000    -0.7492    0.6645    -0.3879
150.000    -0.7351    0.5500    -0.3631
155.000    -0.6947    0.4359    -0.3310
160.000    -0.6242    0.3258    -0.2900
170.000    -0.3854    0.1375    -0.1747
175.000    -0.2124    0.0960    -0.0961
180.000    0.0000    0.0866    0.0000
EOT 1
