AeroDyn airfoil file.  Compatible with AeroDyn v13.0.
This file was generated automatically by HARP_Opt.
This data represents a 95.1 percent thick airfoil, and was interpolated between the airfoil data in the files NREL5MW_1000.dat and NREL5MW_0400.dat.
  1           Number of airfoil tables in this file
 1.000         Table ID parameter (Reynolds number in millions)
 0.735         Stall angle (deg)
  0           Zero lift angle of attack (deg)
  0           Cn slope for zero lift (dimensionless)
  0           Cn at stall value for positive angle of attack
  0           Cn at stall value for negative angle of attack
  0           Angle of attack for minimum CD (deg)
  0           Minimum CD value
-180.000    0.0000    0.4641    0.0000
-175.000    0.0178    0.4649    0.0076
-170.000    0.0324    0.4682    0.0139
-160.000    0.0524    0.4840    0.0230
-155.000    0.0584    0.4933    0.0262
-150.000    0.0618    0.5029    0.0287
-145.000    0.0630    0.5125    0.0306
-140.000    0.0622    0.5219    0.0321
-135.000    0.0597    0.5308    0.0331
-130.000    0.0555    0.5391    0.0337
-125.000    0.0501    0.5465    0.0340
-120.000    0.0434    0.5531    0.0341
-115.000    0.0359    0.5586    0.0340
-110.000    0.0275    0.5630    0.0336
-105.000    0.0186    0.5663    0.0331
-100.000    0.0093    0.5684    0.0325
-95.000    -0.0002    0.5694    0.0317
-90.000    -0.0098    0.5691    0.0309
-85.000    -0.0193    0.5676    0.0299
-80.000    -0.0285    0.5650    0.0289
-75.000    -0.0372    0.5613    0.0277
-70.000    -0.0455    0.5565    0.0265
-65.000    -0.0528    0.5507    0.0252
-60.000    -0.0594    0.5439    0.0238
-55.000    -0.0647    0.5363    0.0223
-50.000    -0.0688    0.5280    0.0208
-45.000    -0.0714    0.5192    0.0191
-40.000    -0.0724    0.5099    0.0174
-35.000    -0.0715    0.5005    0.0156
-30.000    -0.0685    0.4913    0.0136
-25.000    -0.0635    0.4824    0.0116
-24.000    -0.0621    0.4807    0.0112
-23.000    -0.0608    0.4791    0.0108
-22.000    -0.0592    0.4775    0.0104
-21.000    -0.0577    0.4759    0.0099
-20.000    -0.0559    0.4744    0.0095
-19.000    -0.0541    0.4729    0.0090
-18.000    -0.0519    0.4717    0.0083
-17.000    -0.0494    0.4706    0.0074
-16.000    -0.0466    0.4696    0.0064
-15.000    -0.0436    0.4688    0.0053
-14.000    -0.0403    0.4682    0.0040
-13.000    -0.0369    0.4676    0.0027
-12.000    -0.0332    0.4672    0.0013
-11.000    -0.0294    0.4669    -0.0002
-10.000    -0.0254    0.4668    -0.0017
-8.000    -0.0170    0.4668    -0.0049
-6.000    -0.0091    0.4648    -0.0041
-5.500    -0.0073    0.4642    -0.0042
-5.000    -0.0059    0.4636    -0.0043
-4.500    -0.0053    0.4631    -0.0044
-4.000    -0.0044    0.4625    -0.0044
-3.500    -0.0014    0.4620    -0.0045
-3.000    0.0002    0.4616    -0.0046
-2.500    0.0011    0.4612    -0.0045
-2.000    0.0007    0.4608    -0.0044
-1.500    0.0003    0.4605    -0.0036
-1.000    0.0029    0.4604    -0.0038
-0.500    0.0060    0.4603    -0.0043
0.000    0.0112    0.4601    -0.0047
0.500    0.0174    0.4601    -0.0053
1.000    0.0238    0.4601    -0.0059
1.500    0.0301    0.4602    -0.0064
2.000    0.0363    0.4602    -0.0068
2.500    0.0420    0.4602    -0.0071
3.000    0.0474    0.4602    -0.0072
3.500    0.0527    0.4601    -0.0073
4.000    0.0580    0.4601    -0.0075
4.500    0.0634    0.4602    -0.0076
5.000    0.0687    0.4602    -0.0077
5.500    0.0738    0.4602    -0.0078
6.000    0.0790    0.4603    -0.0079
6.500    0.0839    0.4603    -0.0079
7.000    0.0885    0.4605    -0.0079
7.500    0.0931    0.4606    -0.0079
8.000    0.0974    0.4608    -0.0079
8.500    0.1014    0.4611    -0.0078
9.000    0.1051    0.4614    -0.0077
9.500    0.1089    0.4618    -0.0077
10.000    0.1117    0.4624    -0.0076
10.500    0.1143    0.4630    -0.0074
11.000    0.1164    0.4639    -0.0073
11.500    0.1183    0.4648    -0.0072
12.000    0.1203    0.4658    -0.0071
12.500    0.1220    0.4671    -0.0071
13.000    0.1236    0.4684    -0.0072
13.500    0.1256    0.4697    -0.0072
14.500    0.1296    0.4726    -0.0075
15.000    0.1318    0.4742    -0.0077
15.500    0.1332    0.4759    -0.0079
16.000    0.1347    0.4775    -0.0081
16.500    0.1361    0.4793    -0.0084
17.000    0.1373    0.4811    -0.0087
17.500    0.1388    0.4829    -0.0091
18.000    0.1404    0.4847    -0.0094
19.000    0.1430    0.4882    -0.0101
19.500    0.1443    0.4901    -0.0105
20.500    0.1468    0.4936    -0.0113
21.000    0.1478    0.4952    -0.0116
22.000    0.1494    0.4986    -0.0121
23.000    0.1508    0.5021    -0.0126
24.000    0.1520    0.5057    -0.0131
25.000    0.1529    0.5093    -0.0136
26.000    0.1536    0.5130    -0.0141
28.000    0.1547    0.5205    -0.0150
30.000    0.1555    0.5281    -0.0160
32.000    0.1564    0.5356    -0.0168
35.000    0.1575    0.5467    -0.0181
40.000    0.1554    0.5643    -0.0202
45.000    0.1486    0.5800    -0.0221
50.000    0.1380    0.5931    -0.0239
55.000    0.1243    0.6030    -0.0255
60.000    0.1080    0.6091    -0.0271
65.000    0.0903    0.6112    -0.0286
70.000    0.0719    0.6090    -0.0300
75.000    0.0537    0.6026    -0.0313
80.000    0.0367    0.5926    -0.0325
85.000    0.0218    0.5804    -0.0336
90.000    0.0101    0.5725    -0.0346
95.000    0.0002    0.5728    -0.0355
100.000    -0.0096    0.5718    -0.0362
105.000    -0.0192    0.5696    -0.0369
110.000    -0.0284    0.5663    -0.0373
115.000    -0.0370    0.5617    -0.0376
120.000    -0.0448    0.5561    -0.0378
125.000    -0.0517    0.5493    -0.0376
130.000    -0.0573    0.5417    -0.0372
135.000    -0.0616    0.5332    -0.0364
140.000    -0.0643    0.5240    -0.0353
145.000    -0.0651    0.5143    -0.0337
150.000    -0.0639    0.5043    -0.0315
155.000    -0.0604    0.4944    -0.0288
160.000    -0.0542    0.4849    -0.0252
170.000    -0.0335    0.4685    -0.0152
175.000    -0.0185    0.4649    -0.0083
180.000    0.0000    0.4641    0.0000
EOT 1
