AeroDyn airfoil file.  Compatible with AeroDyn v13.0.
This file was generated automatically by HARP_Opt.
This data represents a 70.8 percent thick airfoil, and was interpolated between the airfoil data in the files NREL5MW_1000.dat and NREL5MW_0400.dat.
  1           Number of airfoil tables in this file
 1.000         Table ID parameter (Reynolds number in millions)
 4.380         Stall angle (deg)
  0           Zero lift angle of attack (deg)
  0           Cn slope for zero lift (dimensionless)
  0           Cn at stall value for positive angle of attack
  0           Cn at stall value for negative angle of attack
  0           Angle of attack for minimum CD (deg)
  0           Minimum CD value
-180.000    0.0000    0.2860    0.0000
-175.000    0.1061    0.2907    0.0455
-170.000    0.1932    0.3105    0.0826
-160.000    0.3124    0.4049    0.1369
-155.000    0.3480    0.4600    0.1561
-150.000    0.3684    0.5173    0.1711
-145.000    0.3757    0.5747    0.1826
-140.000    0.3708    0.6307    0.1911
-135.000    0.3558    0.6838    0.1970
-130.000    0.3309    0.7330    0.2008
-125.000    0.2983    0.7774    0.2027
-120.000    0.2589    0.8163    0.2032
-115.000    0.2136    0.8491    0.2024
-110.000    0.1640    0.8755    0.2004
-105.000    0.1110    0.8951    0.1974
-100.000    0.0555    0.9077    0.1936
-95.000    -0.0010    0.9133    0.1892
-90.000    -0.0584    0.9117    0.1840
-85.000    -0.1149    0.9031    0.1783
-80.000    -0.1698    0.8876    0.1720
-75.000    -0.2219    0.8653    0.1652
-70.000    -0.2711    0.8367    0.1579
-65.000    -0.3149    0.8019    0.1501
-60.000    -0.3538    0.7616    0.1418
-55.000    -0.3854    0.7164    0.1330
-50.000    -0.4098    0.6669    0.1238
-45.000    -0.4253    0.6141    0.1140
-40.000    -0.4312    0.5591    0.1036
-35.000    -0.4258    0.5033    0.0928
-30.000    -0.4083    0.4480    0.0813
-25.000    -0.3781    0.3953    0.0692
-24.000    -0.3704    0.3852    0.0667
-23.000    -0.3621    0.3754    0.0642
-22.000    -0.3528    0.3658    0.0617
-21.000    -0.3436    0.3564    0.0591
-20.000    -0.3334    0.3472    0.0566
-19.000    -0.3222    0.3388    0.0534
-18.000    -0.3090    0.3313    0.0493
-17.000    -0.2944    0.3247    0.0441
-16.000    -0.2779    0.3190    0.0382
-15.000    -0.2599    0.3142    0.0314
-14.000    -0.2404    0.3102    0.0240
-13.000    -0.2200    0.3071    0.0161
-12.000    -0.1981    0.3047    0.0076
-11.000    -0.1752    0.3029    -0.0013
-10.000    -0.1514    0.3020    -0.0104
-8.000    -0.1012    0.3019    -0.0292
-6.000    -0.0540    0.2902    -0.0243
-5.500    -0.0438    0.2865    -0.0251
-5.000    -0.0350    0.2833    -0.0259
-4.500    -0.0316    0.2800    -0.0262
-4.000    -0.0263    0.2767    -0.0265
-3.500    -0.0083    0.2737    -0.0270
-3.000    0.0015    0.2712    -0.0272
-2.500    0.0068    0.2691    -0.0270
-2.000    0.0044    0.2663    -0.0260
-1.500    0.0019    0.2646    -0.0215
-1.000    0.0175    0.2638    -0.0228
-0.500    0.0355    0.2633    -0.0254
0.000    0.0667    0.2622    -0.0279
0.500    0.1037    0.2622    -0.0313
1.000    0.1421    0.2624    -0.0349
1.500    0.1796    0.2626    -0.0381
2.000    0.2161    0.2627    -0.0406
2.500    0.2501    0.2627    -0.0421
3.000    0.2823    0.2627    -0.0432
3.500    0.3139    0.2625    -0.0438
4.000    0.3455    0.2625    -0.0445
4.500    0.3777    0.2626    -0.0454
5.000    0.4093    0.2628    -0.0461
5.500    0.4399    0.2629    -0.0466
6.000    0.4706    0.2632    -0.0471
6.500    0.4998    0.2637    -0.0474
7.000    0.5275    0.2644    -0.0473
7.500    0.5548    0.2651    -0.0473
8.000    0.5806    0.2663    -0.0471
8.500    0.6044    0.2679    -0.0466
9.000    0.6263    0.2701    -0.0461
9.500    0.6487    0.2724    -0.0458
10.000    0.6658    0.2758    -0.0451
10.500    0.6813    0.2798    -0.0442
11.000    0.6935    0.2849    -0.0433
11.500    0.7052    0.2903    -0.0427
12.000    0.7169    0.2964    -0.0423
12.500    0.7271    0.3040    -0.0423
13.000    0.7363    0.3116    -0.0426
13.500    0.7485    0.3193    -0.0431
14.500    0.7723    0.3370    -0.0446
15.000    0.7855    0.3465    -0.0457
15.500    0.7938    0.3565    -0.0470
16.000    0.8025    0.3662    -0.0485
16.500    0.8108    0.3767    -0.0502
17.000    0.8181    0.3873    -0.0520
17.500    0.8268    0.3978    -0.0540
18.000    0.8366    0.4086    -0.0563
19.000    0.8522    0.4296    -0.0604
19.500    0.8599    0.4408    -0.0628
20.500    0.8750    0.4617    -0.0674
21.000    0.8809    0.4715    -0.0689
22.000    0.8906    0.4917    -0.0720
23.000    0.8989    0.5125    -0.0750
24.000    0.9057    0.5338    -0.0780
25.000    0.9110    0.5555    -0.0810
26.000    0.9154    0.5775    -0.0839
28.000    0.9217    0.6223    -0.0896
30.000    0.9266    0.6675    -0.0951
32.000    0.9320    0.7124    -0.1004
35.000    0.9388    0.7785    -0.1080
40.000    0.9261    0.8832    -0.1201
45.000    0.8857    0.9767    -0.1314
50.000    0.8225    1.0548    -0.1422
55.000    0.7407    1.1136    -0.1522
60.000    0.6439    1.1502    -0.1616
65.000    0.5383    1.1625    -0.1704
70.000    0.4283    1.1496    -0.1787
75.000    0.3202    1.1116    -0.1864
80.000    0.2185    1.0516    -0.1935
85.000    0.1299    0.9792    -0.2001
90.000    0.0603    0.9321    -0.2061
95.000    0.0010    0.9337    -0.2114
100.000    -0.0574    0.9280    -0.2159
105.000    -0.1144    0.9150    -0.2197
110.000    -0.1694    0.8949    -0.2226
115.000    -0.2205    0.8678    -0.2244
120.000    -0.2672    0.8340    -0.2250
125.000    -0.3081    0.7940    -0.2242
130.000    -0.3416    0.7483    -0.2216
135.000    -0.3669    0.6976    -0.2172
140.000    -0.3830    0.6428    -0.2104
145.000    -0.3879    0.5852    -0.2008
150.000    -0.3806    0.5259    -0.1880
155.000    -0.3596    0.4668    -0.1714
160.000    -0.3231    0.4098    -0.1501
170.000    -0.1995    0.3123    -0.0904
175.000    -0.1100    0.2908    -0.0497
180.000    0.0000    0.2860    0.0000
EOT 1
