AeroDyn airfoil file.  Compatible with AeroDyn v13.0.
This file was generated automatically by HARP_Opt.
This data represents a 29.3 percent thick airfoil, and was interpolated between the airfoil data in the files NREL5MW_0300.dat and NREL5MW_0250.dat.
  1           Number of airfoil tables in this file
 1.000         Table ID parameter (Reynolds number in millions)
 8.930         Stall angle (deg)
  0           Zero lift angle of attack (deg)
  0           Cn slope for zero lift (dimensionless)
  0           Cn at stall value for positive angle of attack
  0           Cn at stall value for negative angle of attack
  0           Angle of attack for minimum CD (deg)
  0           Minimum CD value
-180.000    0.0000    0.0258    0.0000
-175.000    0.2872    0.0364    0.1444
-170.000    0.5733    0.0964    0.2907
-160.000    0.6864    0.2872    0.2731
-155.000    0.7675    0.4022    0.3108
-150.000    0.8177    0.5230    0.3400
-145.000    0.8380    0.6453    0.3618
-140.000    0.8340    0.7657    0.3777
-135.000    0.8060    0.8809    0.3884
-130.000    0.7581    0.9886    0.3949
-125.000    0.6921    1.0867    0.3978
-120.000    0.6111    1.1738    0.3975
-115.000    0.5171    1.2484    0.3947
-110.000    0.4131    1.3096    0.3897
-105.000    0.3020    1.3566    0.3828
-100.000    0.1838    1.3890    0.3743
-95.000    0.0627    1.4065    0.3644
-90.000    -0.0595    1.4088    0.3532
-85.000    -0.1816    1.3961    0.3409
-80.000    -0.3009    1.3685    0.3276
-75.000    -0.4150    1.3262    0.3134
-70.000    -0.5223    1.2698    0.2982
-65.000    -0.6213    1.2000    0.2822
-60.000    -0.7077    1.1178    0.2653
-55.000    -0.7809    1.0242    0.2476
-50.000    -0.8381    0.9209    0.2290
-45.000    -0.8773    0.8095    0.2096
-40.000    -0.8954    0.6923    0.1893
-35.000    -0.8896    0.5721    0.1681
-30.000    -0.8586    0.4519    0.1461
-25.000    -0.8279    0.3369    0.1214
-24.000    -0.8436    0.3156    0.1148
-23.000    -0.8690    0.2950    0.1074
-22.000    -0.9012    0.2749    0.0993
-21.000    -0.9403    0.2555    0.0905
-20.000    -0.9853    0.2367    0.0811
-19.000    -1.0342    0.2186    0.0713
-18.000    -1.0871    0.2012    0.0611
-17.000    -1.1422    0.1845    0.0506
-16.000    -1.1974    0.1684    0.0399
-15.250    -1.2389    0.1569    0.0317
-14.240    -1.1903    0.1375    0.0199
-13.240    -1.1243    0.1173    0.0057
-12.220    -1.0391    0.0951    -0.0123
-11.220    -0.9575    0.0803    -0.0248
-10.190    -0.8635    0.0677    -0.0351
-9.700    -0.8198    0.0628    -0.0390
-9.180    -0.7688    0.0559    -0.0451
-8.180    -0.7415    0.0263    -0.0593
-7.190    -0.6661    0.0170    -0.0621
-6.650    -0.5920    0.0157    -0.0667
-6.130    -0.5183    0.0144    -0.0710
-6.000    -0.5011    0.0113    -0.0762
-5.500    -0.4277    0.0102    -0.0798
-5.000    -0.3593    0.0094    -0.0840
-4.500    -0.2913    0.0089    -0.0868
-4.000    -0.2276    0.0088    -0.0896
-3.500    -0.1651    0.0086    -0.0926
-3.000    -0.0963    0.0086    -0.0955
-2.500    -0.0278    0.0085    -0.0982
-2.000    0.0400    0.0085    -0.1009
-1.500    0.1077    0.0085    -0.1033
-1.000    0.1744    0.0085    -0.1057
-0.500    0.2411    0.0085    -0.1079
0.000    0.3098    0.0084    -0.1100
0.286    0.3475    0.0084    -0.1113
0.572    0.3852    0.0084    -0.1125
0.857    0.4233    0.0085    -0.1137
1.142    0.4609    0.0085    -0.1149
1.425    0.4981    0.0086    -0.1161
1.707    0.5355    0.0086    -0.1172
1.987    0.5728    0.0087    -0.1183
2.265    0.6089    0.0087    -0.1193
2.541    0.6448    0.0088    -0.1203
2.814    0.6806    0.0089    -0.1212
3.084    0.7156    0.0089    -0.1221
3.351    0.7497    0.0090    -0.1229
3.615    0.7838    0.0090    -0.1238
3.875    0.8179    0.0091    -0.1246
4.130    0.8508    0.0092    -0.1254
4.382    0.8828    0.0093    -0.1261
4.629    0.9146    0.0093    -0.1267
4.872    0.9454    0.0094    -0.1273
5.109    0.9749    0.0095    -0.1277
5.341    1.0037    0.0096    -0.1281
5.568    1.0319    0.0097    -0.1285
5.789    1.0593    0.0099    -0.1288
6.004    1.0859    0.0100    -0.1291
6.212    1.1114    0.0102    -0.1294
6.415    1.1361    0.0103    -0.1296
6.611    1.1597    0.0105    -0.1298
6.800    1.1824    0.0107    -0.1299
6.982    1.2040    0.0110    -0.1300
7.157    1.2240    0.0112    -0.1300
7.324    1.2432    0.0114    -0.1300
7.484    1.2608    0.0116    -0.1299
7.636    1.2757    0.0120    -0.1293
7.781    1.2898    0.0124    -0.1287
7.917    1.3030    0.0127    -0.1281
8.046    1.3139    0.0131    -0.1274
8.166    1.3239    0.0135    -0.1266
8.277    1.3331    0.0138    -0.1259
8.381    1.3417    0.0141    -0.1252
8.475    1.3495    0.0143    -0.1246
8.561    1.3566    0.0146    -0.1240
8.638    1.3630    0.0148    -0.1235
8.706    1.3686    0.0150    -0.1230
8.765    1.3735    0.0152    -0.1226
8.816    1.3776    0.0153    -0.1223
8.857    1.3810    0.0155    -0.1220
8.889    1.3837    0.0155    -0.1218
8.912    1.3855    0.0156    -0.1217
8.925    1.3867    0.0157    -0.1216
8.930    1.3871    0.0157    -0.1215
8.949    1.3883    0.0157    -0.1214
9.004    1.3920    0.0159    -0.1210
9.097    1.3983    0.0162    -0.1202
9.226    1.4069    0.0166    -0.1189
9.392    1.4181    0.0171    -0.1173
9.595    1.4316    0.0180    -0.1155
9.834    1.4475    0.0191    -0.1135
10.110    1.4637    0.0206    -0.1112
10.421    1.4809    0.0225    -0.1086
10.768    1.4939    0.0254    -0.1056
11.149    1.5044    0.0292    -0.1023
11.566    1.5119    0.0342    -0.0988
12.017    1.5167    0.0405    -0.0959
12.502    1.5084    0.0495    -0.0932
13.020    1.4291    0.0664    -0.0910
13.572    1.3673    0.0823    -0.0897
14.155    1.3336    0.0989    -0.0901
14.770    1.3239    0.1171    -0.0925
15.416    1.3193    0.1381    -0.0962
16.093    1.3224    0.1601    -0.1012
16.799    1.3189    0.1811    -0.1063
17.535    1.3279    0.2016    -0.1119
18.298    1.3346    0.2221    -0.1183
19.089    1.3614    0.2424    -0.1255
19.907    1.3892    0.2613    -0.1326
20.750    1.4219    0.2820    -0.1413
21.618    1.4134    0.3073    -0.1475
22.511    1.3934    0.3344    -0.1525
23.426    1.3721    0.3628    -0.1576
24.364    1.3500    0.3924    -0.1628
25.323    1.3271    0.4230    -0.1681
26.302    1.3047    0.4546    -0.1733
27.300    1.2837    0.4870    -0.1787
28.316    1.2641    0.5200    -0.1842
29.350    1.2485    0.5536    -0.1896
30.399    1.2360    0.5874    -0.1952
31.464    1.2290    0.6214    -0.2008
32.543    1.2274    0.6553    -0.2064
33.634    1.2314    0.6891    -0.2120
34.737    1.2354    0.7233    -0.2177
35.851    1.2354    0.7570    -0.2232
36.974    1.2342    0.7909    -0.2288
38.105    1.2329    0.8250    -0.2343
39.243    1.2317    0.8593    -0.2400
40.387    1.2278    0.8930    -0.2455
41.536    1.2188    0.9254    -0.2508
42.689    1.2097    0.9580    -0.2562
43.844    1.2006    0.9906    -0.2615
45.000    1.1915    1.0232    -0.2669
50.000    1.1228    1.1503    -0.2888
55.000    1.0287    1.2591    -0.3093
60.000    0.9149    1.3463    -0.3287
65.000    0.7854    1.4097    -0.3468
70.000    0.6465    1.4476    -0.3638
75.000    0.5016    1.4598    -0.3796
80.000    0.3570    1.4477    -0.3942
85.000    0.2176    1.4174    -0.4078
90.000    0.0892    1.3945    -0.4201
95.000    -0.0328    1.3947    -0.4310
100.000    -0.1528    1.3800    -0.4405
105.000    -0.2698    1.3503    -0.4483
110.000    -0.3818    1.3060    -0.4543
115.000    -0.4857    1.2476    -0.4581
120.000    -0.5805    1.1755    -0.4594
125.000    -0.6624    1.0910    -0.4579
130.000    -0.7292    0.9951    -0.4529
135.000    -0.7791    0.8894    -0.4439
140.000    -0.8090    0.7758    -0.4301
145.000    -0.8165    0.6567    -0.4107
150.000    -0.7983    0.5350    -0.3846
155.000    -0.7511    0.4143    -0.3506
160.000    -0.6738    0.2988    -0.3073
170.000    -0.5733    0.1043    -0.2915
175.000    -0.2872    0.0384    -0.1445
180.000    0.0000    0.0258    0.0000
EOT 1
