AeroDyn airfoil file.  Compatible with AeroDyn v13.0.
This file was generated automatically by HARP_Opt.
This data represents a 64.9 percent thick airfoil, and was interpolated between the airfoil data in the files NREL5MW_1000.dat and NREL5MW_0400.dat.
  1           Number of airfoil tables in this file
 1.000         Table ID parameter (Reynolds number in millions)
 5.265         Stall angle (deg)
  0           Zero lift angle of attack (deg)
  0           Cn slope for zero lift (dimensionless)
  0           Cn at stall value for positive angle of attack
  0           Cn at stall value for negative angle of attack
  0           Angle of attack for minimum CD (deg)
  0           Minimum CD value
-180.000    0.0000    0.2427    0.0000
-175.000    0.1275    0.2484    0.0546
-170.000    0.2322    0.2723    0.0993
-160.000    0.3756    0.3856    0.1646
-155.000    0.4183    0.4520    0.1877
-150.000    0.4428    0.5208    0.2057
-145.000    0.4516    0.5898    0.2195
-140.000    0.4458    0.6571    0.2297
-135.000    0.4276    0.7210    0.2368
-130.000    0.3978    0.7801    0.2414
-125.000    0.3586    0.8335    0.2437
-120.000    0.3112    0.8802    0.2443
-115.000    0.2568    0.9197    0.2432
-110.000    0.1971    0.9514    0.2408
-105.000    0.1334    0.9749    0.2373
-100.000    0.0667    0.9901    0.2328
-95.000    -0.0012    0.9968    0.2274
-90.000    -0.0702    0.9949    0.2212
-85.000    -0.1381    0.9846    0.2143
-80.000    -0.2042    0.9659    0.2067
-75.000    -0.2668    0.9392    0.1985
-70.000    -0.3258    0.9047    0.1898
-65.000    -0.3785    0.8629    0.1804
-60.000    -0.4253    0.8145    0.1705
-55.000    -0.4633    0.7601    0.1599
-50.000    -0.4926    0.7006    0.1488
-45.000    -0.5113    0.6372    0.1370
-40.000    -0.5183    0.5711    0.1245
-35.000    -0.5119    0.5039    0.1115
-30.000    -0.4908    0.4375    0.0977
-25.000    -0.4545    0.3742    0.0832
-24.000    -0.4452    0.3621    0.0802
-23.000    -0.4352    0.3502    0.0772
-22.000    -0.4241    0.3387    0.0742
-21.000    -0.4130    0.3274    0.0711
-20.000    -0.4007    0.3164    0.0680
-19.000    -0.3873    0.3062    0.0642
-18.000    -0.3715    0.2972    0.0592
-17.000    -0.3539    0.2893    0.0531
-16.000    -0.3340    0.2824    0.0459
-15.000    -0.3124    0.2767    0.0378
-14.000    -0.2890    0.2719    0.0289
-13.000    -0.2644    0.2681    0.0193
-12.000    -0.2381    0.2652    0.0091
-11.000    -0.2106    0.2631    -0.0015
-10.000    -0.1819    0.2620    -0.0125
-8.000    -0.1217    0.2619    -0.0351
-6.000    -0.0649    0.2478    -0.0292
-5.500    -0.0526    0.2434    -0.0302
-5.000    -0.0421    0.2395    -0.0311
-4.500    -0.0380    0.2356    -0.0315
-4.000    -0.0316    0.2315    -0.0318
-3.500    -0.0099    0.2279    -0.0324
-3.000    0.0018    0.2250    -0.0326
-2.500    0.0082    0.2224    -0.0325
-2.000    0.0053    0.2191    -0.0312
-1.500    0.0023    0.2171    -0.0259
-1.000    0.0211    0.2161    -0.0274
-0.500    0.0427    0.2155    -0.0305
0.000    0.0801    0.2141    -0.0335
0.500    0.1246    0.2142    -0.0377
1.000    0.1708    0.2144    -0.0420
1.500    0.2159    0.2146    -0.0458
2.000    0.2597    0.2148    -0.0488
2.500    0.3007    0.2148    -0.0507
3.000    0.3393    0.2147    -0.0519
3.500    0.3773    0.2145    -0.0526
4.000    0.4153    0.2145    -0.0535
4.500    0.4540    0.2146    -0.0546
5.000    0.4920    0.2148    -0.0554
5.500    0.5288    0.2150    -0.0560
6.000    0.5657    0.2154    -0.0566
6.500    0.6008    0.2159    -0.0569
7.000    0.6341    0.2167    -0.0569
7.500    0.6669    0.2177    -0.0569
8.000    0.6979    0.2191    -0.0566
8.500    0.7266    0.2210    -0.0560
9.000    0.7529    0.2236    -0.0555
9.500    0.7798    0.2264    -0.0551
10.000    0.8003    0.2305    -0.0542
10.500    0.8190    0.2353    -0.0531
11.000    0.8336    0.2414    -0.0521
11.500    0.8477    0.2479    -0.0513
12.000    0.8617    0.2552    -0.0509
12.500    0.8740    0.2644    -0.0509
13.000    0.8851    0.2735    -0.0512
13.500    0.8997    0.2828    -0.0518
14.500    0.9284    0.3040    -0.0536
15.000    0.9442    0.3154    -0.0549
15.500    0.9541    0.3275    -0.0565
16.000    0.9647    0.3391    -0.0583
16.500    0.9746    0.3518    -0.0603
17.000    0.9834    0.3645    -0.0625
17.500    0.9939    0.3771    -0.0649
18.000    1.0056    0.3901    -0.0677
19.000    1.0243    0.4154    -0.0727
19.500    1.0337    0.4288    -0.0755
20.500    1.0518    0.4539    -0.0810
21.000    1.0588    0.4658    -0.0828
22.000    1.0705    0.4901    -0.0865
23.000    1.0805    0.5150    -0.0902
24.000    1.0887    0.5406    -0.0938
25.000    1.0951    0.5667    -0.0973
26.000    1.1004    0.5932    -0.1009
28.000    1.1080    0.6470    -0.1077
30.000    1.1138    0.7013    -0.1143
32.000    1.1203    0.7553    -0.1207
35.000    1.1285    0.8347    -0.1299
40.000    1.1133    0.9606    -0.1444
45.000    1.0647    1.0731    -0.1580
50.000    0.9886    1.1670    -0.1709
55.000    0.8904    1.2376    -0.1829
60.000    0.7740    1.2816    -0.1943
65.000    0.6470    1.2964    -0.2049
70.000    0.5148    1.2808    -0.2148
75.000    0.3849    1.2352    -0.2241
80.000    0.2627    1.1630    -0.2327
85.000    0.1562    1.0760    -0.2406
90.000    0.0725    1.0194    -0.2477
95.000    0.0012    1.0214    -0.2541
100.000    -0.0690    1.0145    -0.2596
105.000    -0.1375    0.9989    -0.2641
110.000    -0.2036    0.9747    -0.2675
115.000    -0.2650    0.9421    -0.2697
120.000    -0.3212    0.9015    -0.2704
125.000    -0.3703    0.8534    -0.2695
130.000    -0.4107    0.7985    -0.2664
135.000    -0.4411    0.7375    -0.2610
140.000    -0.4604    0.6717    -0.2529
145.000    -0.4662    0.6024    -0.2414
150.000    -0.4575    0.5311    -0.2260
155.000    -0.4323    0.4601    -0.2060
160.000    -0.3884    0.3916    -0.1805
170.000    -0.2398    0.2744    -0.1087
175.000    -0.1322    0.2486    -0.0598
180.000    0.0000    0.2427    0.0000
EOT 1
