AeroDyn airfoil file.  Compatible with AeroDyn v13.0.
This file was generated automatically by HARP_Opt.
This data represents a 34.3 percent thick airfoil, and was interpolated between the airfoil data in the files NREL5MW_0350.dat and NREL5MW_0300.dat.
  1           Number of airfoil tables in this file
 1.000         Table ID parameter (Reynolds number in millions)
11.150         Stall angle (deg)
  0           Zero lift angle of attack (deg)
  0           Cn slope for zero lift (dimensionless)
  0           Cn at stall value for positive angle of attack
  0           Cn at stall value for negative angle of attack
  0           Angle of attack for minimum CD (deg)
  0           Minimum CD value
-180.000    0.0000    0.0387    0.0000
-175.000    0.2301    0.0488    0.0999
-170.000    0.4249    0.1043    0.1853
-160.000    0.6618    0.2967    0.2808
-155.000    0.7376    0.4108    0.3200
-150.000    0.7833    0.5297    0.3505
-145.000    0.8007    0.6496    0.3737
-140.000    0.7933    0.7670    0.3907
-135.000    0.7636    0.8788    0.4025
-130.000    0.7147    0.9828    0.4099
-125.000    0.6479    1.0771    0.4137
-120.000    0.5669    1.1601    0.4143
-115.000    0.4737    1.2307    0.4121
-110.000    0.3714    1.2880    0.4078
-105.000    0.2613    1.3313    0.4014
-100.000    0.1450    1.3602    0.3933
-95.000    0.0266    1.3742    0.3838
-90.000    -0.0928    1.3735    0.3730
-85.000    -0.2114    1.3580    0.3609
-80.000    -0.3269    1.3280    0.3478
-75.000    -0.4375    1.2838    0.3337
-70.000    -0.5411    1.2261    0.3186
-65.000    -0.6358    1.1555    0.3024
-60.000    -0.7183    1.0729    0.2854
-55.000    -0.7870    0.9797    0.2674
-50.000    -0.8397    0.8772    0.2483
-45.000    -0.8753    0.7676    0.2283
-40.000    -0.8898    0.6527    0.2072
-35.000    -0.8813    0.5356    0.1851
-30.000    -0.8477    0.4192    0.1618
-25.000    -0.7907    0.3076    0.1372
-24.000    -0.7798    0.2863    0.1319
-23.000    -0.7693    0.2655    0.1264
-22.000    -0.7590    0.2453    0.1209
-21.000    -0.7489    0.2256    0.1152
-20.000    -0.7378    0.2064    0.1095
-19.000    -0.7264    0.1877    0.1036
-18.000    -0.7148    0.1698    0.0976
-17.000    -0.7025    0.1526    0.0913
-16.000    -0.6912    0.1364    0.0832
-15.000    -0.6764    0.1209    0.0733
-14.000    -0.6501    0.1058    0.0615
-13.000    -0.6211    0.0915    0.0478
-12.000    -0.5909    0.0782    0.0325
-11.000    -0.5613    0.0664    0.0166
-10.000    -0.5317    0.0560    0.0002
-5.540    -0.3951    0.0226    -0.0795
-5.040    -0.3630    0.0207    -0.0799
-4.540    -0.3543    0.0181    -0.0803
-4.040    -0.3411    0.0162    -0.0807
-3.540    -0.2912    0.0152    -0.0811
-3.040    -0.2291    0.0136    -0.0816
-3.000    -0.2232    0.0219    -0.0664
-2.500    -0.1473    0.0174    -0.0712
-2.000    -0.0759    0.0150    -0.0748
-1.500    -0.0044    0.0130    -0.0781
-1.000    0.0660    0.0114    -0.0812
-0.500    0.1347    0.0102    -0.0839
0.000    0.2089    0.0093    -0.0863
0.357    0.2579    0.0094    -0.0885
0.714    0.3073    0.0096    -0.0907
1.071    0.3567    0.0097    -0.0929
1.426    0.4055    0.0097    -0.0949
1.780    0.4534    0.0098    -0.0966
2.131    0.5011    0.0099    -0.0983
2.481    0.5486    0.0100    -0.0999
2.828    0.5955    0.0101    -0.1015
3.172    0.6412    0.0102    -0.1029
3.513    0.6866    0.0102    -0.1042
3.851    0.7322    0.0103    -0.1056
4.184    0.7766    0.0104    -0.1069
4.513    0.8203    0.0105    -0.1082
4.838    0.8631    0.0106    -0.1094
5.157    0.9052    0.0107    -0.1105
5.472    0.9465    0.0107    -0.1116
5.780    0.9871    0.0108    -0.1125
6.083    1.0261    0.0109    -0.1133
6.379    1.0639    0.0111    -0.1138
6.669    1.1005    0.0112    -0.1144
6.952    1.1366    0.0113    -0.1149
7.228    1.1719    0.0114    -0.1154
7.496    1.2055    0.0116    -0.1159
7.757    1.2379    0.0117    -0.1160
8.010    1.2675    0.0120    -0.1161
8.254    1.2960    0.0123    -0.1156
8.490    1.3204    0.0126    -0.1151
8.717    1.3439    0.0129    -0.1140
8.936    1.3677    0.0133    -0.1129
9.145    1.3906    0.0137    -0.1120
9.345    1.4121    0.0141    -0.1113
9.535    1.4320    0.0146    -0.1107
9.715    1.4508    0.0151    -0.1100
9.886    1.4672    0.0157    -0.1094
10.046    1.4824    0.0163    -0.1088
10.196    1.4965    0.0168    -0.1080
10.335    1.5094    0.0173    -0.1073
10.464    1.5214    0.0178    -0.1067
10.582    1.5323    0.0183    -0.1061
10.689    1.5419    0.0188    -0.1056
10.785    1.5495    0.0193    -0.1052
10.870    1.5563    0.0199    -0.1048
10.944    1.5621    0.0203    -0.1044
11.007    1.5670    0.0207    -0.1041
11.058    1.5711    0.0210    -0.1038
11.098    1.5743    0.0213    -0.1035
11.127    1.5765    0.0214    -0.1033
11.144    1.5779    0.0215    -0.1032
11.150    1.5783    0.0216    -0.1032
11.167    1.5795    0.0217    -0.1031
11.220    1.5829    0.0221    -0.1027
11.306    1.5887    0.0228    -0.1022
11.428    1.5968    0.0237    -0.1014
11.584    1.6071    0.0249    -0.1003
11.774    1.6197    0.0265    -0.0991
11.999    1.6346    0.0286    -0.0976
12.257    1.6502    0.0315    -0.0962
12.549    1.6652    0.0356    -0.0946
12.874    1.6785    0.0408    -0.0928
13.233    1.6889    0.0472    -0.0909
13.624    1.6877    0.0563    -0.0888
14.047    1.6832    0.0690    -0.0865
14.502    1.6718    0.0848    -0.0849
14.989    1.6468    0.1033    -0.0849
15.506    1.6199    0.1232    -0.0849
16.053    1.5902    0.1458    -0.0874
16.631    1.5644    0.1698    -0.0915
17.237    1.5377    0.1962    -0.0975
17.872    1.5186    0.2270    -0.1052
18.535    1.5148    0.2531    -0.1124
19.225    1.5194    0.2786    -0.1197
19.942    1.5354    0.3034    -0.1258
20.684    1.5405    0.3291    -0.1314
21.451    1.5419    0.3562    -0.1367
22.243    1.5415    0.3848    -0.1419
23.057    1.5361    0.4151    -0.1472
23.895    1.5293    0.4468    -0.1526
24.754    1.5222    0.4798    -0.1580
25.634    1.5143    0.5138    -0.1636
26.534    1.5067    0.5488    -0.1690
27.452    1.4993    0.5846    -0.1746
28.389    1.4934    0.6209    -0.1801
29.343    1.4893    0.6576    -0.1855
30.313    1.4874    0.6947    -0.1910
31.298    1.4893    0.7317    -0.1963
32.297    1.4921    0.7688    -0.2016
33.309    1.4968    0.8058    -0.2068
34.334    1.5017    0.8432    -0.2120
35.369    1.5038    0.8805    -0.2172
36.414    1.5010    0.9173    -0.2223
37.468    1.4981    0.9544    -0.2275
38.529    1.4951    0.9918    -0.2327
39.598    1.4922    1.0294    -0.2379
40.671    1.4836    1.0653    -0.2430
41.750    1.4716    1.1001    -0.2479
42.831    1.4596    1.1350    -0.2529
43.915    1.4475    1.1700    -0.2579
45.000    1.4354    1.2051    -0.2629
50.000    1.3438    1.3458    -0.2846
55.000    1.2210    1.4602    -0.3051
60.000    1.0739    1.5437    -0.3244
65.000    0.9099    1.5931    -0.3425
70.000    0.7370    1.6067    -0.3594
75.000    0.5615    1.5846    -0.3753
80.000    0.3912    1.5300    -0.3900
85.000    0.2348    1.4542    -0.4035
90.000    0.0997    1.4027    -0.4158
95.000    -0.0231    1.4038    -0.4268
100.000    -0.1440    1.3898    -0.4364
105.000    -0.2618    1.3608    -0.4444
110.000    -0.3747    1.3170    -0.4505
115.000    -0.4804    1.2590    -0.4544
120.000    -0.5754    1.1873    -0.4559
125.000    -0.6591    1.1028    -0.4546
130.000    -0.7270    1.0069    -0.4498
135.000    -0.7779    0.9008    -0.4410
140.000    -0.8087    0.7867    -0.4275
145.000    -0.8176    0.6670    -0.4082
150.000    -0.7996    0.5444    -0.3825
155.000    -0.7534    0.4225    -0.3487
160.000    -0.6764    0.3057    -0.3057
170.000    -0.4352    0.1080    -0.1974
175.000    -0.2353    0.0493    -0.1064
180.000    0.0000    0.0387    0.0000
EOT 1
