! This hub-height wind-speed file was generated by TurbSim (v1.06.00, 21-Sep-2012) on 26-Jan-2014 at 09:42:43.
!
! The requested statistics for this data were:
!    Mean Total Wind Speed =   18.200 m/s
!
!   Time  HorSpd  WndDir  VerSpd  HorShr  VerShr  LnVShr  GstSpd
!  (sec)   (m/s)   (deg)   (m/s)     (-)     (-)     (-)   (m/s)
   0.000   24.59    2.31   -2.43   0.000   0.143   0.000    0.00
   0.050   24.30    1.45   -2.10   0.000   0.143   0.000    0.00
   0.100   23.91    1.17   -2.04   0.000   0.143   0.000    0.00
   0.150   24.81    2.86   -1.71   0.000   0.143   0.000    0.00
   0.200   24.73    2.81   -1.56   0.000   0.143   0.000    0.00
   0.250   24.53    3.60   -1.41   0.000   0.143   0.000    0.00
   0.300   24.13    3.32   -1.03   0.000   0.143   0.000    0.00
   0.350   24.10    2.90   -1.22   0.000   0.143   0.000    0.00
   0.400   24.21    2.19   -0.81   0.000   0.143   0.000    0.00
   0.450   24.48    2.96   -0.79   0.000   0.143   0.000    0.00
   0.500   24.06    3.09   -1.05   0.000   0.143   0.000    0.00
   0.550   23.63    1.83   -1.23   0.000   0.143   0.000    0.00
   0.600   23.75    0.96   -1.14   0.000   0.143   0.000    0.00
   0.650   23.89   -0.07   -1.23   0.000   0.143   0.000    0.00
   0.700   23.88    0.64   -1.52   0.000   0.143   0.000    0.00
   0.750   23.93    1.24   -1.11   0.000   0.143   0.000    0.00
   0.800   24.05    1.28   -0.46   0.000   0.143   0.000    0.00
   0.850   23.82    1.33   -1.32   0.000   0.143   0.000    0.00
   0.900   24.13    1.21   -2.27   0.000   0.143   0.000    0.00
   0.950   24.28    1.48   -2.63   0.000   0.143   0.000    0.00
   1.000   23.57    0.75   -2.96   0.000   0.143   0.000    0.00
   1.050   23.06    2.29   -2.91   0.000   0.143   0.000    0.00
   1.100   22.99    1.91   -2.74   0.000   0.143   0.000    0.00
   1.150   22.86    3.49   -2.32   0.000   0.143   0.000    0.00
   1.200   22.13    3.95   -2.59   0.000   0.143   0.000    0.00
   1.250   22.32    3.67   -2.37   0.000   0.143   0.000    0.00
   1.300   22.45    4.82   -2.48   0.000   0.143   0.000    0.00
   1.350   22.27    4.51   -2.15   0.000   0.143   0.000    0.00
   1.400   22.76    4.95   -2.42   0.000   0.143   0.000    0.00
   1.450   23.15    4.56   -2.97   0.000   0.143   0.000    0.00
   1.500   23.37    4.60   -2.84   0.000   0.143   0.000    0.00
   1.550   23.52    4.03   -2.42   0.000   0.143   0.000    0.00
   1.600   23.38    3.40   -2.89   0.000   0.143   0.000    0.00
   1.650   23.64    4.08   -2.80   0.000   0.143   0.000    0.00
   1.700   23.61    4.83   -2.81   0.000   0.143   0.000    0.00
   1.750   23.40    4.65   -1.75   0.000   0.143   0.000    0.00
   1.800   23.41    3.86   -1.77   0.000   0.143   0.000    0.00
   1.850   23.17    3.74   -2.29   0.000   0.143   0.000    0.00
   1.900   23.54    2.24   -2.06   0.000   0.143   0.000    0.00
   1.950   23.29    2.60   -2.38   0.000   0.143   0.000    0.00
   2.000   22.97    4.14   -2.60   0.000   0.143   0.000    0.00
   2.050   22.87    4.44   -1.74   0.000   0.143   0.000    0.00
   2.100   22.72    3.03   -2.08   0.000   0.143   0.000    0.00
   2.150   22.18    2.51   -1.99   0.000   0.143   0.000    0.00
   2.200   21.66    4.05   -2.25   0.000   0.143   0.000    0.00
   2.250   22.36    4.57   -1.66   0.000   0.143   0.000    0.00
   2.300   22.90    3.29   -1.72   0.000   0.143   0.000    0.00
   2.350   22.99    4.46   -1.91   0.000   0.143   0.000    0.00
   2.400   22.84    4.32   -2.40   0.000   0.143   0.000    0.00
   2.450   23.07    3.19   -2.91   0.000   0.143   0.000    0.00
   2.500   23.59    3.33   -3.19   0.000   0.143   0.000    0.00
   2.550   23.16    3.11   -3.15   0.000   0.143   0.000    0.00
   2.600   22.65    3.03   -3.77   0.000   0.143   0.000    0.00
   2.650   22.28    3.18   -3.93   0.000   0.143   0.000    0.00
   2.700   22.29    4.35   -3.32   0.000   0.143   0.000    0.00
   2.750   22.59    6.46   -3.29   0.000   0.143   0.000    0.00
   2.800   23.30    6.98   -3.28   0.000   0.143   0.000    0.00
   2.850   22.78    6.08   -2.79   0.000   0.143   0.000    0.00
   2.900   23.08    5.28   -2.77   0.000   0.143   0.000    0.00
   2.950   22.85    3.96   -2.42   0.000   0.143   0.000    0.00
   3.000   22.69    4.64   -2.50   0.000   0.143   0.000    0.00
   3.050   22.71    4.45   -2.50   0.000   0.143   0.000    0.00
   3.100   22.15    3.47   -2.12   0.000   0.143   0.000    0.00
   3.150   22.33    3.10   -1.69   0.000   0.143   0.000    0.00
   3.200   22.06    3.38   -1.31   0.000   0.143   0.000    0.00
   3.250   21.99    3.89   -1.05   0.000   0.143   0.000    0.00
   3.300   22.30    4.37   -1.61   0.000   0.143   0.000    0.00
   3.350   21.72    3.58   -1.54   0.000   0.143   0.000    0.00
   3.400   21.61    2.09   -1.69   0.000   0.143   0.000    0.00
   3.450   22.16    1.97   -1.54   0.000   0.143   0.000    0.00
   3.500   21.82    1.66   -1.59   0.000   0.143   0.000    0.00
   3.550   21.49   -1.59   -1.66   0.000   0.143   0.000    0.00
   3.600   21.47   -1.43   -1.75   0.000   0.143   0.000    0.00
   3.650   22.20    0.04   -1.67   0.000   0.143   0.000    0.00
   3.700   21.55    1.79   -1.70   0.000   0.143   0.000    0.00
   3.750   21.80    2.92   -1.85   0.000   0.143   0.000    0.00
   3.800   22.17    4.50   -2.11   0.000   0.143   0.000    0.00
   3.850   21.67    5.32   -2.06   0.000   0.143   0.000    0.00
   3.900   21.59    4.02   -2.05   0.000   0.143   0.000    0.00
   3.950   21.37    4.78   -2.33   0.000   0.143   0.000    0.00
   4.000   20.39    5.11   -2.32   0.000   0.143   0.000    0.00
   4.050   20.45    3.10   -2.77   0.000   0.143   0.000    0.00
   4.100   20.68    1.69   -3.16   0.000   0.143   0.000    0.00
   4.150   21.35    2.71   -3.39   0.000   0.143   0.000    0.00
   4.200   21.38    2.34   -3.60   0.000   0.143   0.000    0.00
   4.250   21.01    3.56   -3.75   0.000   0.143   0.000    0.00
   4.300   21.08    2.66   -3.21   0.000   0.143   0.000    0.00
   4.350   20.82    3.72   -2.80   0.000   0.143   0.000    0.00
   4.400   21.04    4.53   -2.39   0.000   0.143   0.000    0.00
   4.450   21.57    6.42   -2.20   0.000   0.143   0.000    0.00
   4.500   21.68    6.52   -2.10   0.000   0.143   0.000    0.00
   4.550   21.22    5.43   -1.87   0.000   0.143   0.000    0.00
   4.600   20.82    7.62   -1.87   0.000   0.143   0.000    0.00
   4.650   20.43    8.04   -1.38   0.000   0.143   0.000    0.00
   4.700   20.80    8.96   -1.30   0.000   0.143   0.000    0.00
   4.750   20.43    6.91   -0.99   0.000   0.143   0.000    0.00
   4.800   20.64    6.86   -1.28   0.000   0.143   0.000    0.00
   4.850   20.72    6.42   -0.99   0.000   0.143   0.000    0.00
   4.900   19.87    3.98   -0.53   0.000   0.143   0.000    0.00
   4.950   19.63    5.49   -0.67   0.000   0.143   0.000    0.00
   5.000   19.76    7.14   -0.53   0.000   0.143   0.000    0.00
   5.050   19.57    7.07   -1.17   0.000   0.143   0.000    0.00
   5.100   19.58    5.92   -1.11   0.000   0.143   0.000    0.00
   5.150   19.15    5.08   -1.36   0.000   0.143   0.000    0.00
   5.200   19.36    6.65   -1.40   0.000   0.143   0.000    0.00
   5.250   19.20    5.85   -1.42   0.000   0.143   0.000    0.00
   5.300   19.78    4.91   -1.60   0.000   0.143   0.000    0.00
   5.350   20.07    4.73   -1.44   0.000   0.143   0.000    0.00
   5.400   20.35    3.65   -1.57   0.000   0.143   0.000    0.00
   5.450   20.49    3.71   -1.92   0.000   0.143   0.000    0.00
   5.500   20.50    1.58   -1.93   0.000   0.143   0.000    0.00
   5.550   20.74    1.67   -2.46   0.000   0.143   0.000    0.00
   5.600   21.45    1.04   -2.75   0.000   0.143   0.000    0.00
   5.650   21.28    0.55   -3.06   0.000   0.143   0.000    0.00
   5.700   21.61    2.30   -2.55   0.000   0.143   0.000    0.00
   5.750   21.54    3.18   -2.01   0.000   0.143   0.000    0.00
   5.800   21.09    4.16   -2.57   0.000   0.143   0.000    0.00
   5.850   21.04    4.20   -2.52   0.000   0.143   0.000    0.00
   5.900   21.42    3.51   -2.81   0.000   0.143   0.000    0.00
   5.950   21.51    2.93   -1.98   0.000   0.143   0.000    0.00
   6.000   21.96    3.66   -1.99   0.000   0.143   0.000    0.00
   6.050   22.02    3.57   -2.03   0.000   0.143   0.000    0.00
   6.100   21.72    3.79   -1.93   0.000   0.143   0.000    0.00
   6.150   21.82    5.01   -2.07   0.000   0.143   0.000    0.00
   6.200   21.75    4.81   -2.26   0.000   0.143   0.000    0.00
   6.250   21.90    1.52   -2.17   0.000   0.143   0.000    0.00
   6.300   21.95    1.31   -2.22   0.000   0.143   0.000    0.00
   6.350   21.99   -0.15   -2.19   0.000   0.143   0.000    0.00
   6.400   21.88    1.17   -2.04   0.000   0.143   0.000    0.00
   6.450   22.02    1.33   -1.79   0.000   0.143   0.000    0.00
   6.500   22.07    0.64   -1.90   0.000   0.143   0.000    0.00
   6.550   21.92    1.21   -2.15   0.000   0.143   0.000    0.00
   6.600   21.98    1.91   -2.27   0.000   0.143   0.000    0.00
   6.650   22.22   -0.26   -2.04   0.000   0.143   0.000    0.00
   6.700   22.61   -1.33   -1.82   0.000   0.143   0.000    0.00
   6.750   23.09   -1.99   -1.23   0.000   0.143   0.000    0.00
   6.800   22.57   -2.59   -0.89   0.000   0.143   0.000    0.00
   6.850   22.75   -3.41   -0.73   0.000   0.143   0.000    0.00
   6.900   22.04   -2.16   -1.10   0.000   0.143   0.000    0.00
   6.950   21.83   -2.84   -0.89   0.000   0.143   0.000    0.00
   7.000   21.86   -1.10   -0.78   0.000   0.143   0.000    0.00
   7.050   21.96    0.72   -0.33   0.000   0.143   0.000    0.00
   7.100   22.03   -1.03   -1.46   0.000   0.143   0.000    0.00
   7.150   21.69   -1.26   -1.25   0.000   0.143   0.000    0.00
   7.200   21.61   -0.75   -1.07   0.000   0.143   0.000    0.00
   7.250   21.71    1.25   -1.58   0.000   0.143   0.000    0.00
   7.300   21.66    2.89   -1.65   0.000   0.143   0.000    0.00
   7.350   21.18    2.07   -2.15   0.000   0.143   0.000    0.00
   7.400   21.80    3.76   -2.20   0.000   0.143   0.000    0.00
   7.450   22.07    2.89   -2.48   0.000   0.143   0.000    0.00
   7.500   22.23    0.94   -1.16   0.000   0.143   0.000    0.00
   7.550   22.83    1.12   -1.14   0.000   0.143   0.000    0.00
   7.600   22.74    2.02   -1.20   0.000   0.143   0.000    0.00
   7.650   22.65    1.24   -1.36   0.000   0.143   0.000    0.00
   7.700   22.30    2.42   -0.67   0.000   0.143   0.000    0.00
   7.750   22.56    2.73   -0.76   0.000   0.143   0.000    0.00
   7.800   22.27    1.56   -1.05   0.000   0.143   0.000    0.00
   7.850   22.29    1.45   -0.86   0.000   0.143   0.000    0.00
   7.900   22.36    0.92   -1.40   0.000   0.143   0.000    0.00
   7.950   21.73    1.85   -1.17   0.000   0.143   0.000    0.00
   8.000   21.63    3.37   -1.76   0.000   0.143   0.000    0.00
   8.050   21.93    4.22   -0.92   0.000   0.143   0.000    0.00
   8.100   22.02    3.47   -0.46   0.000   0.143   0.000    0.00
   8.150   21.68    2.79   -1.31   0.000   0.143   0.000    0.00
   8.200   21.24    3.88   -1.46   0.000   0.143   0.000    0.00
   8.250   21.27    5.12   -1.65   0.000   0.143   0.000    0.00
   8.300   21.37    5.58   -2.35   0.000   0.143   0.000    0.00
   8.350   21.34    4.94   -2.44   0.000   0.143   0.000    0.00
   8.400   21.32    3.70   -2.64   0.000   0.143   0.000    0.00
   8.450   21.31    3.84   -2.04   0.000   0.143   0.000    0.00
   8.500   22.04    5.25   -1.49   0.000   0.143   0.000    0.00
   8.550   22.29    5.29   -1.97   0.000   0.143   0.000    0.00
   8.600   22.00    4.60   -2.00   0.000   0.143   0.000    0.00
   8.650   22.12    4.81   -2.23   0.000   0.143   0.000    0.00
   8.700   21.77    4.42   -2.08   0.000   0.143   0.000    0.00
   8.750   22.36    4.73   -1.63   0.000   0.143   0.000    0.00
   8.800   21.89    5.09   -1.63   0.000   0.143   0.000    0.00
   8.850   21.44    5.45   -1.38   0.000   0.143   0.000    0.00
   8.900   21.21    3.39   -1.17   0.000   0.143   0.000    0.00
   8.950   20.94    2.91   -1.32   0.000   0.143   0.000    0.00
   9.000   21.05    1.11   -1.67   0.000   0.143   0.000    0.00
   9.050   21.63    0.67   -2.37   0.000   0.143   0.000    0.00
   9.100   21.77    1.90   -2.07   0.000   0.143   0.000    0.00
   9.150   21.69    1.77   -1.82   0.000   0.143   0.000    0.00
   9.200   21.86    0.74   -1.18   0.000   0.143   0.000    0.00
   9.250   22.12    1.91   -1.22   0.000   0.143   0.000    0.00
   9.300   22.00    1.71   -1.64   0.000   0.143   0.000    0.00
   9.350   21.69    1.42   -1.80   0.000   0.143   0.000    0.00
   9.400   21.72    2.42   -0.75   0.000   0.143   0.000    0.00
   9.450   21.81    2.75   -0.70   0.000   0.143   0.000    0.00
   9.500   22.07    4.24   -0.91   0.000   0.143   0.000    0.00
   9.550   21.43    3.39   -0.18   0.000   0.143   0.000    0.00
   9.600   21.59    1.34   -0.79   0.000   0.143   0.000    0.00
   9.650   21.54    3.27   -1.64   0.000   0.143   0.000    0.00
   9.700   21.55    3.33   -1.37   0.000   0.143   0.000    0.00
   9.750   21.53    2.26   -1.80   0.000   0.143   0.000    0.00
   9.800   21.15    2.13   -1.51   0.000   0.143   0.000    0.00
   9.850   21.41    2.01   -1.52   0.000   0.143   0.000    0.00
   9.900   21.46    1.80   -2.53   0.000   0.143   0.000    0.00
   9.950   21.35    0.57   -2.56   0.000   0.143   0.000    0.00
  10.000   21.53   -0.11   -2.54   0.000   0.143   0.000    0.00
  10.050   21.75    0.59   -2.44   0.000   0.143   0.000    0.00
  10.100   22.08    1.31   -3.00   0.000   0.143   0.000    0.00
  10.150   22.23    1.90   -2.78   0.000   0.143   0.000    0.00
  10.200   21.60    2.12   -1.88   0.000   0.143   0.000    0.00
  10.250   21.69    2.22   -2.55   0.000   0.143   0.000    0.00
  10.300   21.86    2.26   -2.95   0.000   0.143   0.000    0.00
  10.350   21.37    4.19   -2.58   0.000   0.143   0.000    0.00
  10.400   20.67    5.01   -2.84   0.000   0.143   0.000    0.00
  10.450   20.73    5.46   -2.56   0.000   0.143   0.000    0.00
  10.500   21.10    4.90   -2.67   0.000   0.143   0.000    0.00
  10.550   21.56    4.53   -2.21   0.000   0.143   0.000    0.00
  10.600   21.66    3.89   -2.19   0.000   0.143   0.000    0.00
  10.650   21.97    5.33   -2.30   0.000   0.143   0.000    0.00
  10.700   22.18    6.23   -1.89   0.000   0.143   0.000    0.00
  10.750   22.08    6.35   -1.65   0.000   0.143   0.000    0.00
  10.800   21.60    5.32   -1.34   0.000   0.143   0.000    0.00
  10.850   21.31    5.09   -1.24   0.000   0.143   0.000    0.00
  10.900   21.33    4.66   -1.17   0.000   0.143   0.000    0.00
  10.950   21.23    3.84   -0.88   0.000   0.143   0.000    0.00
  11.000   21.01    3.79   -1.14   0.000   0.143   0.000    0.00
  11.050   21.02    2.75   -0.68   0.000   0.143   0.000    0.00
  11.100   20.47    3.57   -0.79   0.000   0.143   0.000    0.00
  11.150   20.91    2.75   -1.15   0.000   0.143   0.000    0.00
  11.200   20.95    1.65   -1.35   0.000   0.143   0.000    0.00
  11.250   20.69    1.06   -1.12   0.000   0.143   0.000    0.00
  11.300   20.24    0.08   -0.85   0.000   0.143   0.000    0.00
  11.350   20.58   -0.25   -1.05   0.000   0.143   0.000    0.00
  11.400   20.12   -2.57   -1.11   0.000   0.143   0.000    0.00
  11.450   20.26   -4.36   -1.31   0.000   0.143   0.000    0.00
  11.500   19.99   -3.39   -1.16   0.000   0.143   0.000    0.00
  11.550   20.61   -1.57   -1.70   0.000   0.143   0.000    0.00
  11.600   21.20   -2.66   -1.23   0.000   0.143   0.000    0.00
  11.650   21.14   -0.98   -1.18   0.000   0.143   0.000    0.00
  11.700   20.51   -1.09   -0.89   0.000   0.143   0.000    0.00
  11.750   20.32    1.27   -0.34   0.000   0.143   0.000    0.00
  11.800   19.96    2.85   -0.50   0.000   0.143   0.000    0.00
  11.850   19.88    0.85    0.07   0.000   0.143   0.000    0.00
  11.900   20.80   -1.27   -0.04   0.000   0.143   0.000    0.00
  11.950   21.13   -2.26   -0.07   0.000   0.143   0.000    0.00
  12.000   21.02   -0.68   -0.53   0.000   0.143   0.000    0.00
  12.050   20.42    0.10   -0.24   0.000   0.143   0.000    0.00
  12.100   20.52   -0.28   -0.56   0.000   0.143   0.000    0.00
  12.150   20.93   -0.53   -1.24   0.000   0.143   0.000    0.00
  12.200   21.17    0.32   -1.11   0.000   0.143   0.000    0.00
  12.250   21.09   -0.65   -1.88   0.000   0.143   0.000    0.00
  12.300   21.23   -1.42   -2.26   0.000   0.143   0.000    0.00
  12.350   21.13   -1.71   -2.33   0.000   0.143   0.000    0.00
  12.400   20.82   -1.20   -2.00   0.000   0.143   0.000    0.00
  12.450   20.72   -1.47   -1.81   0.000   0.143   0.000    0.00
  12.500   20.80   -0.86   -1.49   0.000   0.143   0.000    0.00
  12.550   20.93    0.55   -1.77   0.000   0.143   0.000    0.00
  12.600   20.55    1.53   -1.25   0.000   0.143   0.000    0.00
  12.650   20.38   -0.89   -2.25   0.000   0.143   0.000    0.00
  12.700   20.14   -0.64   -2.61   0.000   0.143   0.000    0.00
  12.750   19.72    1.28   -2.86   0.000   0.143   0.000    0.00
  12.800   19.76    0.21   -2.53   0.000   0.143   0.000    0.00
  12.850   20.06    0.49   -2.86   0.000   0.143   0.000    0.00
  12.900   20.21    0.48   -2.95   0.000   0.143   0.000    0.00
  12.950   20.61   -1.29   -2.84   0.000   0.143   0.000    0.00
  13.000   21.13   -2.45   -2.62   0.000   0.143   0.000    0.00
  13.050   21.71   -0.62   -2.61   0.000   0.143   0.000    0.00
  13.100   21.88   -0.59   -2.40   0.000   0.143   0.000    0.00
  13.150   21.61   -2.42   -2.49   0.000   0.143   0.000    0.00
  13.200   21.12   -3.46   -2.19   0.000   0.143   0.000    0.00
  13.250   21.15   -4.38   -1.99   0.000   0.143   0.000    0.00
  13.300   21.35   -2.84   -1.60   0.000   0.143   0.000    0.00
  13.350   20.91   -4.58   -1.15   0.000   0.143   0.000    0.00
  13.400   20.81   -3.34   -0.92   0.000   0.143   0.000    0.00
  13.450   21.64   -1.40   -1.25   0.000   0.143   0.000    0.00
  13.500   21.46   -0.32   -1.63   0.000   0.143   0.000    0.00
  13.550   20.90   -1.23   -1.17   0.000   0.143   0.000    0.00
  13.600   20.64   -0.30   -0.74   0.000   0.143   0.000    0.00
  13.650   20.97   -0.31   -0.82   0.000   0.143   0.000    0.00
  13.700   21.28    1.75   -0.20   0.000   0.143   0.000    0.00
  13.750   21.08    1.44   -0.27   0.000   0.143   0.000    0.00
  13.800   21.15    2.47    0.12   0.000   0.143   0.000    0.00
  13.850   21.06    3.60   -0.12   0.000   0.143   0.000    0.00
  13.900   21.20    3.13   -0.56   0.000   0.143   0.000    0.00
  13.950   21.15    3.41   -0.91   0.000   0.143   0.000    0.00
  14.000   20.94    3.18    0.01   0.000   0.143   0.000    0.00
  14.050   20.98    2.94    0.58   0.000   0.143   0.000    0.00
  14.100   21.29    2.93   -0.21   0.000   0.143   0.000    0.00
  14.150   20.84    3.14   -0.17   0.000   0.143   0.000    0.00
  14.200   21.35    3.81   -0.31   0.000   0.143   0.000    0.00
  14.250   20.97    5.15    0.22   0.000   0.143   0.000    0.00
  14.300   21.51    4.96   -0.30   0.000   0.143   0.000    0.00
  14.350   21.34    4.34   -0.45   0.000   0.143   0.000    0.00
  14.400   20.79    4.55   -0.23   0.000   0.143   0.000    0.00
  14.450   20.05    3.51   -0.35   0.000   0.143   0.000    0.00
  14.500   20.41    1.30   -0.10   0.000   0.143   0.000    0.00
  14.550   20.58   -0.52   -0.05   0.000   0.143   0.000    0.00
  14.600   21.37   -1.04   -0.11   0.000   0.143   0.000    0.00
  14.650   20.88    1.69   -0.32   0.000   0.143   0.000    0.00
  14.700   20.58    2.42   -0.59   0.000   0.143   0.000    0.00
  14.750   20.68    3.02   -0.32   0.000   0.143   0.000    0.00
  14.800   20.68    3.64    0.33   0.000   0.143   0.000    0.00
  14.850   20.05    3.08    0.83   0.000   0.143   0.000    0.00
  14.900   19.98    3.13    0.93   0.000   0.143   0.000    0.00
  14.950   19.70    2.04    0.68   0.000   0.143   0.000    0.00
  15.000   19.74    1.74    0.57   0.000   0.143   0.000    0.00
  15.050   19.26    3.59    0.29   0.000   0.143   0.000    0.00
  15.100   19.52    2.78   -0.33   0.000   0.143   0.000    0.00
  15.150   19.46    3.93   -0.20   0.000   0.143   0.000    0.00
  15.200   19.61    2.95   -0.06   0.000   0.143   0.000    0.00
  15.250   19.64    2.94   -0.23   0.000   0.143   0.000    0.00
  15.300   19.45    3.61    0.31   0.000   0.143   0.000    0.00
  15.350   19.10    3.82    0.80   0.000   0.143   0.000    0.00
  15.400   19.01    3.69    1.17   0.000   0.143   0.000    0.00
  15.450   18.35    5.04    1.44   0.000   0.143   0.000    0.00
  15.500   17.99    5.18    1.92   0.000   0.143   0.000    0.00
  15.550   17.98    3.99    2.69   0.000   0.143   0.000    0.00
  15.600   18.31    4.92    2.68   0.000   0.143   0.000    0.00
  15.650   18.69    5.84    2.68   0.000   0.143   0.000    0.00
  15.700   18.64    5.09    2.70   0.000   0.143   0.000    0.00
  15.750   19.37    3.99    2.73   0.000   0.143   0.000    0.00
  15.800   19.23    3.99    2.59   0.000   0.143   0.000    0.00
  15.850   19.22    3.77    2.80   0.000   0.143   0.000    0.00
  15.900   19.14    3.41    2.90   0.000   0.143   0.000    0.00
  15.950   18.89    2.77    2.79   0.000   0.143   0.000    0.00
  16.000   18.54    2.50    3.17   0.000   0.143   0.000    0.00
  16.050   18.51   -0.21    3.23   0.000   0.143   0.000    0.00
  16.100   18.70    2.81    3.24   0.000   0.143   0.000    0.00
  16.150   18.80    2.07    2.18   0.000   0.143   0.000    0.00
  16.200   18.96    2.01    2.63   0.000   0.143   0.000    0.00
  16.250   19.14    2.42    2.88   0.000   0.143   0.000    0.00
  16.300   19.07    1.21    2.47   0.000   0.143   0.000    0.00
  16.350   18.69    2.11    2.85   0.000   0.143   0.000    0.00
  16.400   18.57    4.87    2.86   0.000   0.143   0.000    0.00
  16.450   19.07    2.02    2.32   0.000   0.143   0.000    0.00
  16.500   19.30    2.03    2.21   0.000   0.143   0.000    0.00
  16.550   19.12    3.62    2.80   0.000   0.143   0.000    0.00
  16.600   19.35    3.99    2.47   0.000   0.143   0.000    0.00
  16.650   18.80    4.66    2.41   0.000   0.143   0.000    0.00
  16.700   19.15    5.46    2.37   0.000   0.143   0.000    0.00
  16.750   19.47    5.19    1.65   0.000   0.143   0.000    0.00
  16.800   19.73    4.77    1.66   0.000   0.143   0.000    0.00
  16.850   19.51    4.78    1.01   0.000   0.143   0.000    0.00
  16.900   19.49    3.69    0.64   0.000   0.143   0.000    0.00
  16.950   19.78    3.85    0.08   0.000   0.143   0.000    0.00
  17.000   19.67    4.32   -1.04   0.000   0.143   0.000    0.00
  17.050   19.88    6.46   -1.51   0.000   0.143   0.000    0.00
  17.100   20.14    7.77   -0.68   0.000   0.143   0.000    0.00
  17.150   19.97    7.62    0.54   0.000   0.143   0.000    0.00
  17.200   19.64    6.14    0.40   0.000   0.143   0.000    0.00
  17.250   19.57    7.43    0.12   0.000   0.143   0.000    0.00
  17.300   19.51    7.40    0.17   0.000   0.143   0.000    0.00
  17.350   19.84    8.35   -0.27   0.000   0.143   0.000    0.00
  17.400   19.75    8.76   -0.57   0.000   0.143   0.000    0.00
  17.450   19.68    9.82   -0.57   0.000   0.143   0.000    0.00
  17.500   20.07   10.01   -0.33   0.000   0.143   0.000    0.00
  17.550   19.84    9.95   -0.09   0.000   0.143   0.000    0.00
  17.600   19.78    9.23   -0.65   0.000   0.143   0.000    0.00
  17.650   19.39    9.91   -0.83   0.000   0.143   0.000    0.00
  17.700   19.51    8.44   -0.71   0.000   0.143   0.000    0.00
  17.750   19.23    8.17   -0.68   0.000   0.143   0.000    0.00
  17.800   18.67    8.78   -0.94   0.000   0.143   0.000    0.00
  17.850   19.12    8.59   -0.45   0.000   0.143   0.000    0.00
  17.900   19.07    8.12   -0.53   0.000   0.143   0.000    0.00
  17.950   18.38    8.87    0.12   0.000   0.143   0.000    0.00
  18.000   18.27    5.47   -0.04   0.000   0.143   0.000    0.00
  18.050   18.09    3.49   -0.28   0.000   0.143   0.000    0.00
  18.100   18.25    2.87   -0.47   0.000   0.143   0.000    0.00
  18.150   18.34    3.04    0.40   0.000   0.143   0.000    0.00
  18.200   18.56    2.47    0.20   0.000   0.143   0.000    0.00
  18.250   18.41    2.09    0.03   0.000   0.143   0.000    0.00
  18.300   18.57    2.83   -0.17   0.000   0.143   0.000    0.00
  18.350   18.48    3.75    0.10   0.000   0.143   0.000    0.00
  18.400   18.53    4.79   -0.20   0.000   0.143   0.000    0.00
  18.450   18.32    2.60   -0.54   0.000   0.143   0.000    0.00
  18.500   18.49    2.21   -0.20   0.000   0.143   0.000    0.00
  18.550   18.79    1.59   -0.66   0.000   0.143   0.000    0.00
  18.600   19.35    0.59   -1.03   0.000   0.143   0.000    0.00
  18.650   19.69    1.06   -0.96   0.000   0.143   0.000    0.00
  18.700   19.35    0.85   -1.07   0.000   0.143   0.000    0.00
  18.750   19.25   -2.61    0.11   0.000   0.143   0.000    0.00
  18.800   18.83   -4.08   -0.50   0.000   0.143   0.000    0.00
  18.850   18.52   -0.77   -0.53   0.000   0.143   0.000    0.00
  18.900   18.29   -2.19   -0.03   0.000   0.143   0.000    0.00
  18.950   18.80   -0.46    0.33   0.000   0.143   0.000    0.00
  19.000   19.26   -0.16    0.15   0.000   0.143   0.000    0.00
  19.050   18.59    0.31    0.16   0.000   0.143   0.000    0.00
  19.100   18.39    0.73    0.27   0.000   0.143   0.000    0.00
  19.150   18.95    1.33    0.16   0.000   0.143   0.000    0.00
  19.200   19.35    1.08    0.24   0.000   0.143   0.000    0.00
  19.250   20.19    1.70    0.35   0.000   0.143   0.000    0.00
  19.300   19.54    1.23    0.02   0.000   0.143   0.000    0.00
  19.350   19.14    0.67    0.37   0.000   0.143   0.000    0.00
  19.400   19.29   -0.04    0.78   0.000   0.143   0.000    0.00
  19.450   19.32   -0.53    0.26   0.000   0.143   0.000    0.00
  19.500   19.17    1.38    0.08   0.000   0.143   0.000    0.00
  19.550   19.26    1.23   -0.41   0.000   0.143   0.000    0.00
  19.600   18.92    2.69    0.11   0.000   0.143   0.000    0.00
  19.650   19.15    2.48   -0.06   0.000   0.143   0.000    0.00
  19.700   19.20    2.10   -0.54   0.000   0.143   0.000    0.00
  19.750   19.47    1.75   -0.51   0.000   0.143   0.000    0.00
  19.800   19.30    2.75   -0.18   0.000   0.143   0.000    0.00
  19.850   18.68    4.13    0.02   0.000   0.143   0.000    0.00
  19.900   18.70    4.73   -0.17   0.000   0.143   0.000    0.00
  19.950   19.28    5.02   -0.45   0.000   0.143   0.000    0.00
  20.000   18.71    3.30   -0.67   0.000   0.143   0.000    0.00
  20.050   18.95    2.88   -0.88   0.000   0.143   0.000    0.00
  20.100   19.17    1.94   -0.66   0.000   0.143   0.000    0.00
  20.150   19.20    2.52   -0.80   0.000   0.143   0.000    0.00
  20.200   19.01    2.29   -0.73   0.000   0.143   0.000    0.00
  20.250   19.30    3.00   -0.68   0.000   0.143   0.000    0.00
  20.300   19.14    1.62   -0.28   0.000   0.143   0.000    0.00
  20.350   19.63    1.75   -0.10   0.000   0.143   0.000    0.00
  20.400   19.78    2.39   -0.17   0.000   0.143   0.000    0.00
  20.450   19.63    2.36   -0.45   0.000   0.143   0.000    0.00
  20.500   19.66    1.51   -0.23   0.000   0.143   0.000    0.00
  20.550   19.65    1.96   -0.50   0.000   0.143   0.000    0.00
  20.600   19.70    1.20   -0.01   0.000   0.143   0.000    0.00
  20.650   19.62    1.71    0.13   0.000   0.143   0.000    0.00
  20.700   19.28    2.70    0.07   0.000   0.143   0.000    0.00
  20.750   19.67    3.51    0.56   0.000   0.143   0.000    0.00
  20.800   20.23    2.78    1.06   0.000   0.143   0.000    0.00
  20.850   21.19    1.95    0.80   0.000   0.143   0.000    0.00
  20.900   20.95    2.47    0.89   0.000   0.143   0.000    0.00
  20.950   19.92    3.62    1.11   0.000   0.143   0.000    0.00
  21.000   19.80    5.03    1.13   0.000   0.143   0.000    0.00
  21.050   19.88    3.28    0.95   0.000   0.143   0.000    0.00
  21.100   19.69    2.37    0.80   0.000   0.143   0.000    0.00
  21.150   19.99    3.07    0.82   0.000   0.143   0.000    0.00
  21.200   20.07    3.07    1.12   0.000   0.143   0.000    0.00
  21.250   20.26    4.61    1.29   0.000   0.143   0.000    0.00
  21.300   19.94    5.76    1.42   0.000   0.143   0.000    0.00
  21.350   20.04    3.82    1.46   0.000   0.143   0.000    0.00
  21.400   19.81    4.60    1.54   0.000   0.143   0.000    0.00
  21.450   19.82    5.22    1.01   0.000   0.143   0.000    0.00
  21.500   19.86    5.65    0.74   0.000   0.143   0.000    0.00
  21.550   20.24    5.18    1.78   0.000   0.143   0.000    0.00
  21.600   20.68    4.85    1.84   0.000   0.143   0.000    0.00
  21.650   20.19    5.33    1.49   0.000   0.143   0.000    0.00
  21.700   20.26    5.17    1.38   0.000   0.143   0.000    0.00
  21.750   20.05    4.75    1.89   0.000   0.143   0.000    0.00
  21.800   19.96    5.49    1.67   0.000   0.143   0.000    0.00
  21.850   20.22    5.50    1.93   0.000   0.143   0.000    0.00
  21.900   19.99    6.84    1.86   0.000   0.143   0.000    0.00
  21.950   19.69    5.69    2.14   0.000   0.143   0.000    0.00
  22.000   20.05    5.52    1.50   0.000   0.143   0.000    0.00
  22.050   20.22    5.62    1.63   0.000   0.143   0.000    0.00
  22.100   19.77    6.44    1.65   0.000   0.143   0.000    0.00
  22.150   19.52    7.39    0.59   0.000   0.143   0.000    0.00
  22.200   19.52    8.30    0.33   0.000   0.143   0.000    0.00
  22.250   19.28    9.01    0.67   0.000   0.143   0.000    0.00
  22.300   18.67    8.24    0.22   0.000   0.143   0.000    0.00
  22.350   18.14    9.13   -0.16   0.000   0.143   0.000    0.00
  22.400   18.20    6.98   -0.06   0.000   0.143   0.000    0.00
  22.450   18.04    6.74   -0.50   0.000   0.143   0.000    0.00
  22.500   17.97    6.09   -0.19   0.000   0.143   0.000    0.00
  22.550   18.16    5.13    0.05   0.000   0.143   0.000    0.00
  22.600   18.13    4.78   -0.05   0.000   0.143   0.000    0.00
  22.650   18.07    3.55   -0.65   0.000   0.143   0.000    0.00
  22.700   18.08    1.25   -0.03   0.000   0.143   0.000    0.00
  22.750   17.77    0.84   -0.53   0.000   0.143   0.000    0.00