AeroDyn airfoil file.
auto generated by airfoil.py (part of rotor TEAM)
1         	Number of airfoil tables in this file   
0         	Table ID parameter                      
9.000000  	Stall angle (deg)                       
0.000000  	No longer used, enter zero              
0.000000  	No longer used, enter zero              
0.000000  	No longer used, enter zero              
-1.343000 	Angle of attack for zero Cn for linear Cn curve (deg)
7.488800  	Cn slope for zero lift for linear Cn curve (1/rad)
1.351900  	Cn at stall value for positive angle of attack for linear Cn curve
-0.322600 	Cn at stall value for negative angle of attack for linear Cn curve
0.000000  	Angle of attack for minimum CD (deg)    
0.011300  	Minimum CD value                        
-180.000000	0.000000  	0.060200  	0.000000  
-175.000000	0.218000  	0.069900  	0.093400  
-170.000000	0.397000  	0.110700  	0.169700  
-160.000000	0.642000  	0.304500  	0.281300  
-155.000000	0.715000  	0.417900  	0.320800  
-150.000000	0.757000  	0.535500  	0.351600  
-145.000000	0.772000  	0.653500  	0.375200  
-140.000000	0.762000  	0.768500  	0.392600  
-135.000000	0.731000  	0.877700  	0.404800  
-130.000000	0.680000  	0.978800  	0.412600  
-125.000000	0.613000  	1.070000  	0.416600  
-120.000000	0.532000  	1.149900  	0.417600  
-115.000000	0.439000  	1.217400  	0.415800  
-110.000000	0.337000  	1.271600  	0.411700  
-105.000000	0.228000  	1.311800  	0.405700  
-100.000000	0.114000  	1.337800  	0.397900  
-95.000000	-0.002000 	1.349200  	0.388700  
-90.000000	-0.120000 	1.346000  	0.378100  
-85.000000	-0.236000 	1.328300  	0.366300  
-80.000000	-0.349000 	1.296400  	0.353400  
-75.000000	-0.456000 	1.250700  	0.339400  
-70.000000	-0.557000 	1.191800  	0.324400  
-65.000000	-0.647000 	1.120400  	0.308400  
-60.000000	-0.727000 	1.037600  	0.291400  
-55.000000	-0.792000 	0.944600  	0.273300  
-50.000000	-0.842000 	0.842900  	0.254300  
-45.000000	-0.874000 	0.734500  	0.234200  
-40.000000	-0.886000 	0.621500  	0.212900  
-35.000000	-0.875000 	0.506700  	0.190600  
-30.000000	-0.839000 	0.393200  	0.167000  
-25.000000	-0.777000 	0.284900  	0.142200  
-24.000000	-0.761000 	0.264200  	0.137100  
-23.000000	-0.744000 	0.244000  	0.132000  
-22.000000	-0.725000 	0.224200  	0.126800  
-21.000000	-0.706000 	0.204900  	0.121500  
-20.000000	-0.685000 	0.186100  	0.116200  
-19.000000	-0.662000 	0.168700  	0.109700  
-18.000000	-0.635000 	0.153300  	0.101200  
-17.000000	-0.605000 	0.139800  	0.090700  
-16.000000	-0.571000 	0.128100  	0.078400  
-15.000000	-0.534000 	0.118300  	0.064600  
-14.000000	-0.494000 	0.110100  	0.049400  
-13.000000	-0.452000 	0.103600  	0.033000  
-12.000000	-0.407000 	0.098600  	0.015600  
-11.000000	-0.360000 	0.095100  	-0.002600 
-10.000000	-0.311000 	0.093100  	-0.021300 
-8.000000 	-0.208000 	0.093000  	-0.060000 
-6.000000 	-0.111000 	0.068900  	-0.050000 
-5.500000 	-0.090000 	0.061400  	-0.051600 
-5.000000 	-0.072000 	0.054700  	-0.053200 
-4.500000 	-0.065000 	0.048000  	-0.053800 
-4.000000 	-0.054000 	0.041100  	-0.054400 
-3.500000 	-0.017000 	0.034900  	-0.055400 
-3.000000 	0.003000  	0.029900  	-0.055800 
-2.500000 	0.014000  	0.025500  	-0.055500 
-2.000000 	0.009000  	0.019800  	-0.053400 
-1.500000 	0.004000  	0.016400  	-0.044200 
-1.000000 	0.036000  	0.014700  	-0.046900 
-0.500000 	0.073000  	0.013700  	-0.052200 
0.000000  	0.137000  	0.011300  	-0.057300 
0.500000  	0.213000  	0.011400  	-0.064400 
1.000000  	0.292000  	0.011800  	-0.071800 
1.500000  	0.369000  	0.012200  	-0.078300 
2.000000  	0.444000  	0.012400  	-0.083500 
2.500000  	0.514000  	0.012400  	-0.086600 
3.000000  	0.580000  	0.012300  	-0.088700 
3.500000  	0.645000  	0.012000  	-0.090000 
4.000000  	0.710000  	0.011900  	-0.091400 
4.500000  	0.776000  	0.012200  	-0.093300 
5.000000  	0.841000  	0.012500  	-0.094700 
5.500000  	0.904000  	0.012900  	-0.095700 
6.000000  	0.967000  	0.013500  	-0.096700 
6.500000  	1.027000  	0.014400  	-0.097300 
7.000000  	1.084000  	0.015800  	-0.097200 
7.500000  	1.140000  	0.017400  	-0.097200 
8.000000  	1.193000  	0.019800  	-0.096800 
8.500000  	1.242000  	0.023100  	-0.095800 
9.000000  	1.287000  	0.027500  	-0.094800 
9.500000  	1.333000  	0.032300  	-0.094200 
10.000000 	1.368000  	0.039300  	-0.092600 
10.500000 	1.400000  	0.047500  	-0.090800 
11.000000 	1.425000  	0.058000  	-0.089000 
11.500000 	1.449000  	0.069100  	-0.087700 
12.000000 	1.473000  	0.081600  	-0.087000 
12.500000 	1.494000  	0.097300  	-0.087000 
13.000000 	1.513000  	0.112900  	-0.087600 
13.500000 	1.538000  	0.128800  	-0.088600 
14.500000 	1.587000  	0.165000  	-0.091700 
15.000000 	1.614000  	0.184500  	-0.093900 
15.500000 	1.631000  	0.205200  	-0.096600 
16.000000 	1.649000  	0.225000  	-0.099600 
16.500000 	1.666000  	0.246700  	-0.103100 
17.000000 	1.681000  	0.268400  	-0.106900 
17.500000 	1.699000  	0.290000  	-0.111000 
18.000000 	1.719000  	0.312100  	-0.115700 
19.000000 	1.751000  	0.355400  	-0.124200 
19.500000 	1.767000  	0.378300  	-0.129100 
20.500000 	1.798000  	0.421200  	-0.138400 
21.000000 	1.810000  	0.441500  	-0.141600 
22.000000 	1.830000  	0.483000  	-0.147900 
23.000000 	1.847000  	0.525700  	-0.154200 
24.000000 	1.861000  	0.569400  	-0.160300 
25.000000 	1.872000  	0.614100  	-0.166400 
26.000000 	1.881000  	0.659300  	-0.172400 
28.000000 	1.894000  	0.751300  	-0.184100 
30.000000 	1.904000  	0.844100  	-0.195400 
32.000000 	1.915000  	0.936400  	-0.206300 
35.000000 	1.929000  	1.072200  	-0.222000 
40.000000 	1.903000  	1.287300  	-0.246800 
45.000000 	1.820000  	1.479600  	-0.270100 
50.000000 	1.690000  	1.640100  	-0.292100 
55.000000 	1.522000  	1.760900  	-0.312700 
60.000000 	1.323000  	1.836000  	-0.332100 
65.000000 	1.106000  	1.861400  	-0.350200 
70.000000 	0.880000  	1.834700  	-0.367200 
75.000000 	0.658000  	1.756700  	-0.383000 
80.000000 	0.449000  	1.633400  	-0.397700 
85.000000 	0.267000  	1.484700  	-0.411200 
90.000000 	0.124000  	1.387900  	-0.423400 
95.000000 	0.002000  	1.391200  	-0.434300 
100.000000	-0.118000 	1.379500  	-0.443700 
105.000000	-0.235000 	1.352800  	-0.451400 
110.000000	-0.348000 	1.311400  	-0.457300 
115.000000	-0.453000 	1.255700  	-0.461000 
120.000000	-0.549000 	1.186400  	-0.462300 
125.000000	-0.633000 	1.104100  	-0.460600 
130.000000	-0.702000 	1.010200  	-0.455400 
135.000000	-0.754000 	0.906000  	-0.446200 
140.000000	-0.787000 	0.793500  	-0.432300 
145.000000	-0.797000 	0.675000  	-0.412700 
150.000000	-0.782000 	0.553200  	-0.386300 
155.000000	-0.739000 	0.431800  	-0.352100 
160.000000	-0.664000 	0.314700  	-0.308500 
170.000000	-0.410000 	0.114400  	-0.185800 
175.000000	-0.226000 	0.070200  	-0.102200 
180.000000	0.000000  	0.060200  	0.000000  
