---------TurbSim v2.00.* Profile Input File------------------------
Made up profiles
-------- User-Defined Profiles (Used only with USR wind profile or USRVKM spectral model) -------------------
15               NumUSRz        - Number of Heights
1               StdScale1      - u-component scaling factor for the input standard deviation (USRVKM only)
1               StdScale2      - v-component scaling factor for the input standard deviation (USRVKM only)
1               StdScale3      - w-component scaling factor for the input standard deviation (USRVKM only)
...................................................................................
Height    Wind Speed       Wind --Direction--
 (m)        (m/s)       (deg, cntr-clockwise )
-----------------------------------------------------------------------------------
0.0            0.0            -28.6
10.0            6.9            -25.4
20.0            8.2            -22.2
30.0            9.1            -19.0
40.0            9.8            -15.9
50.0            10.4            -12.7
60.0            10.8            -9.5
70.0            11.3            -6.3
80.0            11.7            -3.2
90.0            12.0            0.0
100.0           12.3            3.2
110.0           12.6            6.3
120.0           12.9            9.5
130.0           13.2            12.7
140.0           13.4            15.9
