MANIFEST.in
README.txt
setup.cfg
setup.py
src/AeroelasticSE/FAST_component.py
src/AeroelasticSE/FAST_noise_component.py
src/AeroelasticSE/FSTTemplate_runner.py
src/AeroelasticSE/FusedFAST.py
src/AeroelasticSE/FusedFASTrunCase.py
src/AeroelasticSE/PeregrineClusterAllocator.py
src/AeroelasticSE/__init__.py
src/AeroelasticSE/iecApp.py
src/AeroelasticSE/newrunFAST.py
src/AeroelasticSE/runTurbSim.py
src/AeroelasticSE.egg-info/PKG-INFO
src/AeroelasticSE.egg-info/SOURCES.txt
src/AeroelasticSE.egg-info/dependency_links.txt
src/AeroelasticSE.egg-info/not-zip-safe
src/AeroelasticSE.egg-info/requires.txt
src/AeroelasticSE.egg-info/top_level.txt